@<TRIPOS>MOLECULE
*****
 32 35 0 0 0
SMALL
GASTEIGER

@<TRIPOS>ATOM
      1 N          62.9563   90.6522   11.7293 N.am    1  UNL1       -0.2438
      2 C          63.5291   91.2340   10.4710 C.3     1  UNL1        0.1009
      3 C          64.6838   92.1886   10.5439 C.3     1  UNL1        0.0661
      4 C          65.2659   92.5613   11.8751 C.3     1  UNL1        0.1578
      5 O          64.6932   91.9795   13.1335 O.3     1  UNL1       -0.4375
      6 C          63.5384   91.0249   13.0606 C.2     1  UNL1        0.4051
      7 O          62.9657   90.4431   14.3190 O.2     1  UNL1       -0.2262
      8 C          66.1470   93.3702   10.9699 C.ar    1  UNL1        0.0137
      9 C          65.9709   94.8573   10.8845 C.ar    1  UNL1       -0.0010
     10 C          66.8521   95.6662    9.9793 C.ar    1  UNL1       -0.0002
     11 C          67.9093   94.9878    9.1596 C.ar    1  UNL1       -0.0000
     12 C          68.0854   93.5006    9.2449 C.ar    1  UNL1       -0.0002
     13 C          67.2043   92.6918   10.1502 C.ar    1  UNL1       -0.0010
     14 C          60.3985   90.2223   11.5796 C.3     1  UNL1        0.0265
     15 C          61.8016   89.6976   11.6564 C.3     1  UNL1        0.1011
     16 C          62.0500   88.2183   11.6603 C.ar    1  UNL1       -0.0042
     17 C          61.2417   87.3197   10.7720 C.ar    1  UNL1       -0.0027
     18 C          61.4901   85.8405   10.7759 C.ar    1  UNL1       -0.0003
     19 C          62.5468   85.2598   11.6682 C.ar    1  UNL1        0.0001
     20 C          63.3551   86.1584   12.5565 C.ar    1  UNL1       -0.0003
     21 C          63.1067   87.6376   12.5526 C.ar    1  UNL1       -0.0027
     22 C          62.7952   83.7805   11.6721 C.ar    1  UNL1        0.0031
     23 C          63.4356   83.1243   10.4849 C.ar    1  UNL1        0.0207
     24 C          63.6840   81.6450   10.4888 C.ar    1  UNL1        0.0989
     25 N          63.2920   80.8219   11.6800 N.ar    1  UNL1       -0.2423
     26 C          62.6516   81.4780   12.8672 C.ar    1  UNL1        0.0989
     27 C          62.4032   82.9573   12.8632 C.ar    1  UNL1        0.0207
     28 C          66.1540   93.2150   12.8920 C.3     1  UNL1        0.0471
     29 C          66.6131   92.4432   14.0934 C.3     1  UNL1        0.0357
     30 C          68.0641   92.0981   14.2536 C.3     1  UNL1        0.1373
     31 O          68.8619   91.6426   13.0679 O.3     1  UNL1       -0.3820
     32 H          68.5244   90.7867   12.7606 H       1  UNL1        0.2104
@<TRIPOS>BOND
     1    15    14    1
     2    15    16    1
     3    16    17   ar
     4    17    18   ar
     5    18    19   ar
     6    19    22    1
     7    22    23   ar
     8    23    24   ar
     9    24    25   ar
    10    25    26   ar
    11    26    27   ar
    12    19    20   ar
    13    20    21   ar
    14    15     1    1
    15     1     2    1
    16     2     3    1
    17     3     4    1
    18     4    28    1
    19    28    29    1
    20    29    30    1
    21    30    31    1
    22     4     8    1
    23     8     9   ar
    24     9    10   ar
    25    10    11   ar
    26    11    12   ar
    27    12    13   ar
    28     4     5    1
    29     5     6    1
    30     6     7    2
    31    21    16   ar
    32     6     1   am
    33    27    22   ar
    34    13     8   ar
    35    31    32    1
@<TRIPOS>MOLECULE
*****
 32 35 0 0 0
SMALL
GASTEIGER

@<TRIPOS>ATOM
      1 N          63.0240   90.7133   11.7296 N.am    1  UNL1       -0.2438
      2 C          63.5752   91.2733   10.4519 C.3     1  UNL1        0.1009
      3 C          64.6986   92.2665   10.4915 C.3     1  UNL1        0.0661
      4 C          65.2708   92.6996   11.8086 C.3     1  UNL1        0.1578
      5 O          64.7195   92.1395   13.0864 O.3     1  UNL1       -0.4375
      6 C          63.5961   91.1464   13.0468 C.2     1  UNL1        0.4051
      7 O          63.0449   90.5863   14.3245 O.2     1  UNL1       -0.2262
      8 C          66.1236   93.5076   10.8759 C.ar    1  UNL1        0.0137
      9 C          67.1692   92.8311   10.0398 C.ar    1  UNL1       -0.0010
     10 C          68.0220   93.6391    9.1071 C.ar    1  UNL1       -0.0002
     11 C          67.8292   95.1235    9.0105 C.ar    1  UNL1       -0.0000
     12 C          66.7836   95.8000    9.8466 C.ar    1  UNL1       -0.0002
     13 C          65.9307   94.9920   10.7794 C.ar    1  UNL1       -0.0010
     14 C          60.4919   90.1892   11.4771 C.3     1  UNL1        0.0265
     15 C          61.9006   89.7201   11.6900 C.3     1  UNL1        0.1011
     16 C          62.1860   88.2577   11.8635 C.ar    1  UNL1       -0.0042
     17 C          63.3261   87.8137   12.7312 C.ar    1  UNL1       -0.0027
     18 C          63.6114   86.3514   12.9046 C.ar    1  UNL1       -0.0003
     19 C          62.7566   85.3330   12.2102 C.ar    1  UNL1        0.0001
     20 C          61.6165   85.7769   11.3425 C.ar    1  UNL1       -0.0003
     21 C          61.3311   87.2392   11.1691 C.ar    1  UNL1       -0.0027
     22 C          63.0420   83.8706   12.3836 C.ar    1  UNL1        0.0031
     23 C          64.3636   83.3079   11.9515 C.ar    1  UNL1        0.0207
     24 C          64.6489   81.8455   12.1250 C.ar    1  UNL1        0.0989
     25 N          63.6127   80.9458   12.7305 N.ar    1  UNL1       -0.2423
     26 C          62.2910   81.5085   13.1626 C.ar    1  UNL1        0.0989
     27 C          62.0057   82.9709   12.9892 C.ar    1  UNL1        0.0207
     28 C          66.1391   93.4134   12.8019 C.3     1  UNL1        0.0471
     29 C          66.9409   92.6286   13.7975 C.3     1  UNL1        0.0357
     30 C          66.8588   92.9632   15.2574 C.3     1  UNL1        0.1373
     31 O          65.5290   92.9715   15.9513 O.3     1  UNL1       -0.3820
     32 H          64.9802   93.6851   15.5901 H       1  UNL1        0.2104
@<TRIPOS>BOND
     1    15    14    1
     2    15    16    1
     3    16    17   ar
     4    17    18   ar
     5    18    19   ar
     6    19    22    1
     7    22    23   ar
     8    23    24   ar
     9    24    25   ar
    10    25    26   ar
    11    26    27   ar
    12    19    20   ar
    13    20    21   ar
    14    15     1    1
    15     1     2    1
    16     2     3    1
    17     3     4    1
    18     4    28    1
    19    28    29    1
    20    29    30    1
    21    30    31    1
    22     4     8    1
    23     8     9   ar
    24     9    10   ar
    25    10    11   ar
    26    11    12   ar
    27    12    13   ar
    28     4     5    1
    29     5     6    1
    30     6     7    2
    31    21    16   ar
    32     6     1   am
    33    27    22   ar
    34    13     8   ar
    35    31    32    1
@<TRIPOS>MOLECULE
*****
 32 35 0 0 0
SMALL
GASTEIGER

@<TRIPOS>ATOM
      1 N          63.3196   90.2479   12.0526 N.am    1  UNL1       -0.2438
      2 C          64.0141   90.1135   13.3753 C.3     1  UNL1        0.1009
      3 C          65.1893   90.9881   13.6977 C.3     1  UNL1        0.0661
      4 C          65.6700   91.9971   12.6974 C.3     1  UNL1        0.1578
      5 O          64.9755   92.1316   11.3746 O.3     1  UNL1       -0.4375
      6 C          63.8003   91.2569   11.0522 C.2     1  UNL1        0.4051
      7 O          63.1058   91.3914    9.7295 O.2     1  UNL1       -0.2262
      8 C          66.6497   92.2427   13.8065 C.ar    1  UNL1        0.0137
      9 C          66.1696   92.7590   15.1305 C.ar    1  UNL1       -0.0010
     10 C          67.1492   93.0046   16.2396 C.ar    1  UNL1       -0.0002
     11 C          68.6088   92.7340   16.0245 C.ar    1  UNL1       -0.0000
     12 C          69.0889   92.2178   14.7005 C.ar    1  UNL1       -0.0002
     13 C          68.1093   91.9721   13.5914 C.ar    1  UNL1       -0.0010
     14 C          60.8149   89.9907   11.4123 C.3     1  UNL1        0.0265
     15 C          62.1444   89.3733   11.7303 C.3     1  UNL1        0.1011
     16 C          62.2987   87.8812   11.7259 C.ar    1  UNL1       -0.0042
     17 C          63.1725   87.2146   12.7468 C.ar    1  UNL1       -0.0027
     18 C          63.3268   85.7226   12.7424 C.ar    1  UNL1       -0.0003
     19 C          62.6074   84.8972   11.7171 C.ar    1  UNL1        0.0001
     20 C          61.7336   85.5638   10.6963 C.ar    1  UNL1       -0.0003
     21 C          61.5793   87.0558   10.7007 C.ar    1  UNL1       -0.0027
     22 C          62.7617   83.4051   11.7128 C.ar    1  UNL1        0.0031
     23 C          62.3615   82.6062   12.9176 C.ar    1  UNL1        0.0207
     24 C          62.5159   81.1141   12.9132 C.ar    1  UNL1        0.0989
     25 N          63.0704   80.4210   11.7041 N.ar    1  UNL1       -0.2423
     26 C          63.4706   81.2200   10.4992 C.ar    1  UNL1        0.0989
     27 C          63.3163   82.7120   10.5036 C.ar    1  UNL1        0.0207
     28 C          66.4910   93.0915   12.0822 C.3     1  UNL1        0.0471
     29 C          66.7441   93.0985   10.6037 C.3     1  UNL1        0.0357
     30 C          67.9986   92.4864   10.0546 C.3     1  UNL1        0.1373
     31 O          69.1967   93.3473    9.7835 O.3     1  UNL1       -0.3820
     32 H          68.9927   93.9692    9.0677 H       1  UNL1        0.2104
@<TRIPOS>BOND
     1    15    14    1
     2    15    16    1
     3    16    17   ar
     4    17    18   ar
     5    18    19   ar
     6    19    22    1
     7    22    23   ar
     8    23    24   ar
     9    24    25   ar
    10    25    26   ar
    11    26    27   ar
    12    19    20   ar
    13    20    21   ar
    14    15     1    1
    15     1     2    1
    16     2     3    1
    17     3     4    1
    18     4    28    1
    19    28    29    1
    20    29    30    1
    21    30    31    1
    22     4     8    1
    23     8     9   ar
    24     9    10   ar
    25    10    11   ar
    26    11    12   ar
    27    12    13   ar
    28     4     5    1
    29     5     6    1
    30     6     7    2
    31    21    16   ar
    32     6     1   am
    33    27    22   ar
    34    13     8   ar
    35    31    32    1
@<TRIPOS>MOLECULE
*****
 32 35 0 0 0
SMALL
GASTEIGER

@<TRIPOS>ATOM
      1 N          63.2850   88.5851   13.0361 N.am    1  UNL1       -0.2438
      2 C          63.9652   87.2837   13.3419 C.3     1  UNL1        0.1009
      3 C          63.5494   86.0335   12.6249 C.3     1  UNL1        0.0661
      4 C          62.4534   86.0847   11.6021 C.3     1  UNL1        0.1578
      5 O          61.7731   87.3862   11.2963 O.3     1  UNL1       -0.4375
      6 C          62.1890   88.6364   12.0133 C.2     1  UNL1        0.4051
      7 O          61.5088   89.9379   11.7075 O.2     1  UNL1       -0.2262
      8 C          62.7940   84.6250   11.5459 C.ar    1  UNL1        0.0137
      9 C          63.4492   84.0543   10.3232 C.ar    1  UNL1       -0.0010
     10 C          63.7898   82.5945   10.2670 C.ar    1  UNL1       -0.0002
     11 C          63.4753   81.7056   11.4336 C.ar    1  UNL1       -0.0000
     12 C          62.8201   82.2763   12.6563 C.ar    1  UNL1       -0.0002
     13 C          62.4794   83.7360   12.7125 C.ar    1  UNL1       -0.0010
     14 C          63.4681   89.9661   15.2291 C.3     1  UNL1        0.0265
     15 C          63.7008   89.8354   13.7531 C.3     1  UNL1        0.1011
     16 C          64.3494   90.9548   12.9940 C.ar    1  UNL1       -0.0042
     17 C          65.4414   91.7604   13.6330 C.ar    1  UNL1       -0.0027
     18 C          66.0900   92.8798   12.8739 C.ar    1  UNL1       -0.0003
     19 C          65.6465   93.1936   11.4758 C.ar    1  UNL1        0.0001
     20 C          64.5545   92.3880   10.8367 C.ar    1  UNL1       -0.0003
     21 C          63.9060   91.2686   11.5958 C.ar    1  UNL1       -0.0027
     22 C          66.2951   94.3131   10.7167 C.ar    1  UNL1        0.0031
     23 C          66.0735   95.7345   11.1414 C.ar    1  UNL1        0.0207
     24 C          66.7221   96.8540   10.3823 C.ar    1  UNL1        0.0989
     25 N          67.5923   96.5520    9.1985 N.ar    1  UNL1       -0.2423
     26 C          67.8139   95.1305    8.7737 C.ar    1  UNL1        0.0989
     27 C          67.1653   94.0111    9.5328 C.ar    1  UNL1        0.0207
     28 C          61.4756   85.6290   10.5598 C.3     1  UNL1        0.0471
     29 C          61.0936   86.5476    9.4372 C.3     1  UNL1        0.0357
     30 C          60.9047   86.0019    8.0528 C.3     1  UNL1        0.1373
     31 O          59.5234   85.7239    7.5383 O.3     1  UNL1       -0.3820
     32 H          59.1258   85.0037    8.0523 H       1  UNL1        0.2104
@<TRIPOS>BOND
     1    15    14    1
     2    15    16    1
     3    16    17   ar
     4    17    18   ar
     5    18    19   ar
     6    19    22    1
     7    22    23   ar
     8    23    24   ar
     9    24    25   ar
    10    25    26   ar
    11    26    27   ar
    12    19    20   ar
    13    20    21   ar
    14    15     1    1
    15     1     2    1
    16     2     3    1
    17     3     4    1
    18     4    28    1
    19    28    29    1
    20    29    30    1
    21    30    31    1
    22     4     8    1
    23     8     9   ar
    24     9    10   ar
    25    10    11   ar
    26    11    12   ar
    27    12    13   ar
    28     4     5    1
    29     5     6    1
    30     6     7    2
    31    21    16   ar
    32     6     1   am
    33    27    22   ar
    34    13     8   ar
    35    31    32    1
@<TRIPOS>MOLECULE
*****
 32 35 0 0 0
SMALL
GASTEIGER

@<TRIPOS>ATOM
      1 N          62.5342   87.8913   12.2836 N.am    1  UNL1       -0.2438
      2 C          62.1709   86.8226   11.2957 C.3     1  UNL1        0.1009
      3 C          62.6428   85.4145   11.5066 C.3     1  UNL1        0.0661
      4 C          63.4779   85.0750   12.7054 C.3     1  UNL1        0.1578
      5 O          63.8413   86.1437   13.6934 O.3     1  UNL1       -0.4375
      6 C          63.3694   87.5518   13.4825 C.2     1  UNL1        0.4051
      7 O          63.7327   88.6205   14.4703 O.2     1  UNL1       -0.2262
      8 C          63.3946   83.7256   12.0555 C.ar    1  UNL1        0.0137
      9 C          64.1465   83.4572   10.7856 C.ar    1  UNL1       -0.0010
     10 C          64.0632   82.1079   10.1356 C.ar    1  UNL1       -0.0002
     11 C          63.2280   81.0271   10.7556 C.ar    1  UNL1       -0.0000
     12 C          62.4762   81.2955   12.0255 C.ar    1  UNL1       -0.0002
     13 C          62.5595   82.6449   12.6755 C.ar    1  UNL1       -0.0010
     14 C          60.6136   89.6407   12.2585 C.3     1  UNL1        0.0265
     15 C          62.0623   89.2994   12.0726 C.3     1  UNL1        0.1011
     16 C          63.0393   90.3663   11.6757 C.ar    1  UNL1       -0.0042
     17 C          63.0638   90.8733   10.2643 C.ar    1  UNL1       -0.0027
     18 C          64.0407   91.9400    9.8674 C.ar    1  UNL1       -0.0003
     19 C          64.9932   92.4998   10.8821 C.ar    1  UNL1        0.0001
     20 C          64.9687   91.9928   12.2936 C.ar    1  UNL1       -0.0003
     21 C          63.9917   90.9260   12.6904 C.ar    1  UNL1       -0.0027
     22 C          65.9701   93.5667   10.4852 C.ar    1  UNL1        0.0031
     23 C          67.1904   93.2080    9.6901 C.ar    1  UNL1        0.0207
     24 C          68.1673   94.2748    9.2932 C.ar    1  UNL1        0.0989
     25 N          67.9240   95.7004    9.6915 N.ar    1  UNL1       -0.2423
     26 C          66.7036   96.0590   10.4866 C.ar    1  UNL1        0.0989
     27 C          65.7268   94.9922   10.8835 C.ar    1  UNL1        0.0207
     28 C          64.2842   84.2669   13.6786 C.3     1  UNL1        0.0471
     29 C          64.1204   84.4870   15.1532 C.3     1  UNL1        0.0357
     30 C          62.8081   84.1872   15.8151 C.3     1  UNL1        0.1373
     31 O          61.5739   84.9356   15.4067 O.3     1  UNL1       -0.3820
     32 H          61.6678   85.8703   15.6482 H       1  UNL1        0.2104
@<TRIPOS>BOND
     1    15    14    1
     2    15    16    1
     3    16    17   ar
     4    17    18   ar
     5    18    19   ar
     6    19    22    1
     7    22    23   ar
     8    23    24   ar
     9    24    25   ar
    10    25    26   ar
    11    26    27   ar
    12    19    20   ar
    13    20    21   ar
    14    15     1    1
    15     1     2    1
    16     2     3    1
    17     3     4    1
    18     4    28    1
    19    28    29    1
    20    29    30    1
    21    30    31    1
    22     4     8    1
    23     8     9   ar
    24     9    10   ar
    25    10    11   ar
    26    11    12   ar
    27    12    13   ar
    28     4     5    1
    29     5     6    1
    30     6     7    2
    31    21    16   ar
    32     6     1   am
    33    27    22   ar
    34    13     8   ar
    35    31    32    1
