@<TRIPOS>MOLECULE
*****
 19 20 0 0 0
SMALL
GASTEIGER

@<TRIPOS>ATOM
      1 C          66.2443   93.6470   10.6216 C.2     1  UNL1        0.1535
      2 N          66.9354   94.0178   11.9003 N.2     1  UNL1       -0.2470
      3 C          66.3081   93.2296   13.0117 C.3     1  UNL1        0.1723
      4 C          65.2293   92.3717   12.4200 C.3     1  UNL1        0.1938
      5 O          64.4222   91.4665   13.3027 O.3     1  UNL1       -0.3399
      6 C          64.6939   91.4192   14.7772 C.3     1  UNL1        0.1803
      7 C          65.7727   92.2771   15.3689 C.3     1  UNL1        0.2189
      8 F          66.0445   92.2298   16.8433 F       1  UNL1       -0.2319
      9 C          66.5798   93.1823   14.4861 C.3     1  UNL1        0.1711
     10 O          67.6587   94.0403   15.0778 O.3     1  UNL1       -0.3796
     11 S          65.1899   92.6296   10.9429 S.3     1  UNL1       -0.0497
     12 H          67.7028   93.8899   16.0351 H       1  UNL1        0.2105
     13 C          63.8869   90.5139   15.6598 C.3     1  UNL1        0.1696
     14 O          63.1698   91.0736   16.8526 O.3     1  UNL1       -0.3794
     15 H          63.8184   91.3943   17.4986 H       1  UNL1        0.2105
     16 N          66.5534   94.1969    9.2608 N.pl3   1  UNL1       -0.3135
     17 H          65.8909   94.7554    8.7934 H       1  UNL1        0.1487
     18 C          68.5577   92.5888    8.8781 C.3     1  UNL1        0.0230
     19 C          67.8719   93.8960    8.6119 C.3     1  UNL1        0.0887
@<TRIPOS>BOND
     1    18    19    1
     2    19    16    1
     3    16     1    1
     4     1     2    2
     5     3     2    1
     6     3     4    1
     7     4     5    1
     8     5     6    1
     9     6    13    1
    10    13    14    1
    11     6     7    1
    12     7     8    1
    13     7     9    1
    14     9    10    1
    15     4    11    1
    16    11     1    1
    17     9     3    1
    18    16    17    1
    19    14    15    1
    20    10    12    1
@<TRIPOS>MOLECULE
*****
 19 20 0 0 0
SMALL
GASTEIGER

@<TRIPOS>ATOM
      1 C          63.5713   83.2767   14.6827 C.2     1  UNL1        0.1535
      2 N          63.1150   83.8932   15.9717 N.2     1  UNL1       -0.2470
      3 C          63.3190   85.3761   15.8741 C.3     1  UNL1        0.1723
      4 C          63.9014   85.6760   14.5247 C.3     1  UNL1        0.1938
      5 O          64.2145   87.0918   14.1408 O.3     1  UNL1       -0.3399
      6 C          63.9452   88.2078   15.1064 C.3     1  UNL1        0.1803
      7 C          63.3628   87.9079   16.4558 C.3     1  UNL1        0.2189
      8 F          63.0935   89.0237   17.4213 F       1  UNL1       -0.2319
      9 C          63.0497   86.4920   16.8396 C.3     1  UNL1        0.1711
     10 O          62.4673   86.1920   18.1890 O.3     1  UNL1       -0.3796
     11 S          64.0573   84.3785   13.7884 S.3     1  UNL1       -0.0497
     12 H          62.3572   87.0186   18.6846 H       1  UNL1        0.2105
     13 C          64.2583   89.6236   14.7225 C.3     1  UNL1        0.1696
     14 O          63.1481   90.6182   14.5548 O.3     1  UNL1       -0.3794
     15 H          62.5969   90.3630   13.7985 H       1  UNL1        0.2105
     16 N          63.5460   81.8150   14.3468 N.pl3   1  UNL1       -0.3135
     17 H          64.2457   81.2173   14.6969 H       1  UNL1        0.1487
     18 C          61.1078   80.9630   14.0653 C.3     1  UNL1        0.0230
     19 C          62.4547   81.2639   13.4777 C.3     1  UNL1        0.0887
@<TRIPOS>BOND
     1    18    19    1
     2    19    16    1
     3    16     1    1
     4     1     2    2
     5     3     2    1
     6     3     4    1
     7     4     5    1
     8     5     6    1
     9     6    13    1
    10    13    14    1
    11     6     7    1
    12     7     8    1
    13     7     9    1
    14     9    10    1
    15     4    11    1
    16    11     1    1
    17     9     3    1
    18    16    17    1
    19    14    15    1
    20    10    12    1
@<TRIPOS>MOLECULE
*****
 19 20 0 0 0
SMALL
GASTEIGER

@<TRIPOS>ATOM
      1 C          66.4431   93.6379   11.1041 C.2     1  UNL1        0.1535
      2 N          65.3544   92.7987   10.5037 N.2     1  UNL1       -0.2470
      3 C          64.7073   92.0186   11.6094 C.3     1  UNL1        0.1723
      4 C          65.3960   92.3756   12.8932 C.3     1  UNL1        0.1938
      5 O          64.9573   91.7433   14.1807 O.3     1  UNL1       -0.3399
      6 C          63.8298   90.7539   14.1844 C.3     1  UNL1        0.1803
      7 C          63.1411   90.3969   12.9006 C.3     1  UNL1        0.2189
      8 F          62.0136   89.4075   12.9043 F       1  UNL1       -0.2319
      9 C          63.5798   91.0292   11.6131 C.3     1  UNL1        0.1711
     10 O          62.8911   90.6722   10.3293 O.3     1  UNL1       -0.3796
     11 S          66.4688   93.3764   12.5809 S.3     1  UNL1       -0.0497
     12 H          62.1913   90.0244   10.5070 H       1  UNL1        0.2105
     13 C          63.3911   90.1216   15.4719 C.3     1  UNL1        0.1696
     14 O          63.3393   90.9382   16.7290 O.3     1  UNL1       -0.3794
     15 H          64.2377   91.2063   16.9777 H       1  UNL1        0.2105
     16 N          67.3474   94.5742   10.3587 N.pl3   1  UNL1       -0.3135
     17 H          67.4274   95.5129   10.6443 H       1  UNL1        0.1487
     18 C          68.7291   92.7053    9.1976 C.3     1  UNL1        0.0230
     19 C          68.1296   94.0802    9.1780 C.3     1  UNL1        0.0887
@<TRIPOS>BOND
     1    18    19    1
     2    19    16    1
     3    16     1    1
     4     1     2    2
     5     3     2    1
     6     3     4    1
     7     4     5    1
     8     5     6    1
     9     6    13    1
    10    13    14    1
    11     6     7    1
    12     7     8    1
    13     7     9    1
    14     9    10    1
    15     4    11    1
    16    11     1    1
    17     9     3    1
    18    16    17    1
    19    14    15    1
    20    10    12    1
@<TRIPOS>MOLECULE
*****
 19 20 0 0 0
SMALL
GASTEIGER

@<TRIPOS>ATOM
      1 C          63.7714   83.3269   11.9180 C.2     1  UNL1        0.1535
      2 N          63.6576   83.6869   10.4663 N.2     1  UNL1       -0.2470
      3 C          62.7469   84.8735   10.3530 C.3     1  UNL1        0.1723
      4 C          62.2979   85.2467   11.7347 C.3     1  UNL1        0.1938
      5 O          61.3706   86.4088   11.9337 O.3     1  UNL1       -0.3399
      6 C          60.8921   87.1976   10.7509 C.3     1  UNL1        0.1803
      7 C          61.3411   86.8243    9.3692 C.3     1  UNL1        0.2189
      8 F          60.8627   87.6131    8.1864 F       1  UNL1       -0.2319
      9 C          62.2685   85.6622    9.1703 C.3     1  UNL1        0.1711
     10 O          62.7175   85.2889    7.7886 O.3     1  UNL1       -0.3796
     11 S          62.9311   84.2909   12.7019 S.3     1  UNL1       -0.0497
     12 H          62.3194   85.8952    7.1444 H       1  UNL1        0.2105
     13 C          59.9647   88.3596   10.9498 C.3     1  UNL1        0.1696
     14 O          59.1872   88.4887   12.2260 O.3     1  UNL1       -0.3794
     15 H          58.5506   87.7598   12.2919 H       1  UNL1        0.2105
     16 N          64.5831   82.2005   12.4860 N.pl3   1  UNL1       -0.3135
     17 H          65.5378   82.1190   12.2599 H       1  UNL1        0.1487
     18 C          62.7080   80.4652   12.9578 C.3     1  UNL1        0.0230
     19 C          63.9401   81.1985   13.3984 C.3     1  UNL1        0.0887
@<TRIPOS>BOND
     1    18    19    1
     2    19    16    1
     3    16     1    1
     4     1     2    2
     5     3     2    1
     6     3     4    1
     7     4     5    1
     8     5     6    1
     9     6    13    1
    10    13    14    1
    11     6     7    1
    12     7     8    1
    13     7     9    1
    14     9    10    1
    15     4    11    1
    16    11     1    1
    17     9     3    1
    18    16    17    1
    19    14    15    1
    20    10    12    1
@<TRIPOS>MOLECULE
*****
 19 20 0 0 0
SMALL
GASTEIGER

@<TRIPOS>ATOM
      1 C          61.5806   89.5710   10.7119 C.2     1  UNL1        0.1535
      2 N          61.6404   89.3587   12.1956 N.2     1  UNL1       -0.2470
      3 C          62.7895   90.1596   12.7325 C.3     1  UNL1        0.1723
      4 C          63.4399   90.8668   11.5806 C.3     1  UNL1        0.1938
      5 O          64.6284   91.7506   11.8177 O.3     1  UNL1       -0.3399
      6 C          65.1666   91.9273   13.2066 C.3     1  UNL1        0.1803
      7 C          64.5162   91.2201   14.3585 C.3     1  UNL1        0.2189
      8 F          65.0543   91.3967   15.7475 F       1  UNL1       -0.2319
      9 C          63.3276   90.3362   14.1214 C.3     1  UNL1        0.1711
     10 O          62.6773   89.6290   15.2733 O.3     1  UNL1       -0.3796
     11 S          62.6927   90.5030   10.3318 S.3     1  UNL1       -0.0497
     12 H          63.1449   89.8499   16.0940 H       1  UNL1        0.2105
     13 C          66.3551   92.8112   13.4437 C.3     1  UNL1        0.1696
     14 O          66.2233   94.0290   14.3094 O.3     1  UNL1       -0.3794
     15 H          65.6295   94.6663   13.8826 H       1  UNL1        0.2105
     16 N          60.5837   88.9587    9.7731 N.pl3   1  UNL1       -0.3135
     17 H          60.1764   89.5052    9.0627 H       1  UNL1        0.1487
     18 C          60.5150   86.5455    8.8132 C.3     1  UNL1        0.0230
     19 C          60.2074   87.5138    9.9167 C.3     1  UNL1        0.0887
@<TRIPOS>BOND
     1    18    19    1
     2    19    16    1
     3    16     1    1
     4     1     2    2
     5     3     2    1
     6     3     4    1
     7     4     5    1
     8     5     6    1
     9     6    13    1
    10    13    14    1
    11     6     7    1
    12     7     8    1
    13     7     9    1
    14     9    10    1
    15     4    11    1
    16    11     1    1
    17     9     3    1
    18    16    17    1
    19    14    15    1
    20    10    12    1
@<TRIPOS>MOLECULE
*****
 19 20 0 0 0
SMALL
GASTEIGER

@<TRIPOS>ATOM
      1 C          63.2157   85.0234   12.4184 C.2     1  UNL1        0.1535
      2 N          62.9664   86.4894   12.6152 N.2     1  UNL1       -0.2470
      3 C          62.0718   86.9604   11.5071 C.3     1  UNL1        0.1723
      4 C          61.7682   85.7855   10.6254 C.3     1  UNL1        0.1938
      5 O          60.8872   85.9575    9.4237 O.3     1  UNL1       -0.3399
      6 C          60.3098   87.3044    9.1036 C.3     1  UNL1        0.1803
      7 C          60.6134   88.4793    9.9853 C.3     1  UNL1        0.2189
      8 F          60.0360   89.8262    9.6653 F       1  UNL1       -0.2319
      9 C          61.4944   88.3073   11.1871 C.3     1  UNL1        0.1711
     10 O          61.7980   89.4822   12.0689 O.3     1  UNL1       -0.3796
     11 S          62.4752   84.5884   11.1886 S.3     1  UNL1       -0.0497
     12 H          61.3501   90.2701   11.7232 H       1  UNL1        0.2105
     13 C          59.4288   87.4764    7.9019 C.3     1  UNL1        0.1696
     14 O          58.2144   86.6125    7.7324 O.3     1  UNL1       -0.3794
     15 H          58.4886   85.6912    7.6022 H       1  UNL1        0.2105
     16 N          64.0577   84.1464   13.2970 N.pl3   1  UNL1       -0.3135
     17 H          64.9182   84.4770   13.6426 H       1  UNL1        0.1487
     18 C          62.3772   82.5833   14.5145 C.3     1  UNL1        0.0230
     19 C          63.5886   82.7659   13.6490 C.3     1  UNL1        0.0887
@<TRIPOS>BOND
     1    18    19    1
     2    19    16    1
     3    16     1    1
     4     1     2    2
     5     3     2    1
     6     3     4    1
     7     4     5    1
     8     5     6    1
     9     6    13    1
    10    13    14    1
    11     6     7    1
    12     7     8    1
    13     7     9    1
    14     9    10    1
    15     4    11    1
    16    11     1    1
    17     9     3    1
    18    16    17    1
    19    14    15    1
    20    10    12    1
@<TRIPOS>MOLECULE
*****
 19 20 0 0 0
SMALL
GASTEIGER

@<TRIPOS>ATOM
      1 C          61.6528   86.2306    9.3649 C.2     1  UNL1        0.1535
      2 N          62.6447   85.1130    9.2350 N.2     1  UNL1       -0.2470
      3 C          62.9563   84.6073   10.6124 C.3     1  UNL1        0.1723
      4 C          62.1569   85.4123   11.5936 C.3     1  UNL1        0.1938
      5 O          62.2658   85.1278   13.0623 O.3     1  UNL1       -0.3399
      6 C          63.1742   84.0382   13.5499 C.3     1  UNL1        0.1803
      7 C          63.9736   83.2332   12.5687 C.3     1  UNL1        0.2189
      8 F          64.8820   82.1436   13.0562 F       1  UNL1       -0.2319
      9 C          63.8647   83.5177   11.0999 C.3     1  UNL1        0.1711
     10 O          64.6641   82.7126   10.1187 O.3     1  UNL1       -0.3796
     11 S          61.3513   86.4156   10.8226 S.3     1  UNL1       -0.0497
     12 H          65.1945   82.0554   10.5958 H       1  UNL1        0.2105
     13 C          63.2831   83.7537   15.0186 C.3     1  UNL1        0.1696
     14 O          62.6307   82.5329   15.5964 O.3     1  UNL1       -0.3794
     15 H          61.6673   82.6131   15.5176 H       1  UNL1        0.2105
     16 N          61.0654   87.0240    8.2355 N.pl3   1  UNL1       -0.3135
     17 H          61.3734   86.8697    7.3132 H       1  UNL1        0.1487
     18 C          59.3379   88.7621    7.3728 C.3     1  UNL1        0.0230
     19 C          60.0089   88.0524    8.5112 C.3     1  UNL1        0.0887
@<TRIPOS>BOND
     1    18    19    1
     2    19    16    1
     3    16     1    1
     4     1     2    2
     5     3     2    1
     6     3     4    1
     7     4     5    1
     8     5     6    1
     9     6    13    1
    10    13    14    1
    11     6     7    1
    12     7     8    1
    13     7     9    1
    14     9    10    1
    15     4    11    1
    16    11     1    1
    17     9     3    1
    18    16    17    1
    19    14    15    1
    20    10    12    1
@<TRIPOS>MOLECULE
*****
 19 20 0 0 0
SMALL
GASTEIGER

@<TRIPOS>ATOM
      1 C          61.7255   89.3268   11.6053 C.2     1  UNL1        0.1535
      2 N          62.4433   89.7654   12.8472 N.2     1  UNL1       -0.2470
      3 C          63.4651   90.7908   12.4543 C.3     1  UNL1        0.1723
      4 C          63.3788   90.9860   10.9696 C.3     1  UNL1        0.1938
      5 O          64.2903   91.9625   10.2872 O.3     1  UNL1       -0.3399
      6 C          65.2883   92.7438   11.0896 C.3     1  UNL1        0.1803
      7 C          65.3746   92.5486   12.5744 C.3     1  UNL1        0.2189
      8 F          66.3725   93.3298   13.3768 F       1  UNL1       -0.2319
      9 C          64.4630   91.5721   13.2567 C.3     1  UNL1        0.1711
     10 O          64.5494   91.3769   14.7415 O.3     1  UNL1       -0.3796
     11 S          62.3036   90.0812   10.4449 S.3     1  UNL1       -0.0497
     12 H          65.2401   91.9535   15.1037 H       1  UNL1        0.2105
     13 C          66.1998   93.7202   10.4073 C.3     1  UNL1        0.1696
     14 O          67.6802   93.4793   10.3917 O.3     1  UNL1       -0.3794
     15 H          68.0269   93.5380   11.2957 H       1  UNL1        0.2105
     16 N          60.6230   88.3120   11.5360 N.pl3   1  UNL1       -0.3135
     17 H          59.7807   88.4662   12.0218 H       1  UNL1        0.1487
     18 C          61.7212   85.9797   11.2131 C.3     1  UNL1        0.0230
     19 C          60.8039   87.0622   10.7266 C.3     1  UNL1        0.0887
@<TRIPOS>BOND
     1    18    19    1
     2    19    16    1
     3    16     1    1
     4     1     2    2
     5     3     2    1
     6     3     4    1
     7     4     5    1
     8     5     6    1
     9     6    13    1
    10    13    14    1
    11     6     7    1
    12     7     8    1
    13     7     9    1
    14     9    10    1
    15     4    11    1
    16    11     1    1
    17     9     3    1
    18    16    17    1
    19    14    15    1
    20    10    12    1
@<TRIPOS>MOLECULE
*****
 19 20 0 0 0
SMALL
GASTEIGER

@<TRIPOS>ATOM
      1 C          66.0246   93.9005   10.3621 C.2     1  UNL1        0.1535
      2 N          65.2076   92.6618   10.5815 N.2     1  UNL1       -0.2470
      3 C          65.1718   92.3852   12.0554 C.3     1  UNL1        0.1723
      4 C          65.9666   93.4530   12.7468 C.3     1  UNL1        0.1938
      5 O          66.1076   93.4346   14.2400 O.3     1  UNL1       -0.3399
      6 C          65.4539   92.3484   15.0419 C.3     1  UNL1        0.1803
      7 C          64.6592   91.2806   14.3504 C.3     1  UNL1        0.2189
      8 F          64.0055   90.1944   15.1521 F       1  UNL1       -0.2319
      9 C          64.5181   91.2990   12.8571 C.3     1  UNL1        0.1711
     10 O          63.7233   90.2312   12.1657 O.3     1  UNL1       -0.3796
     11 S          66.4936   94.3895   11.7003 S.3     1  UNL1       -0.0497
     12 H          63.3715   89.6123   12.8245 H       1  UNL1        0.2105
     13 C          65.5950   92.3300   16.5351 C.3     1  UNL1        0.1696
     14 O          64.5279   92.9372   17.3967 O.3     1  UNL1       -0.3794
     15 H          64.4987   93.8954   17.2482 H       1  UNL1        0.2105
     16 N          66.3205   94.5383    9.0370 N.pl3   1  UNL1       -0.3135
     17 H          65.8578   94.2259    8.2261 H       1  UNL1        0.1487
     18 C          67.0535   96.8317    8.0608 C.3     1  UNL1        0.0230
     19 C          67.3214   95.6519    8.9475 C.3     1  UNL1        0.0887
@<TRIPOS>BOND
     1    18    19    1
     2    19    16    1
     3    16     1    1
     4     1     2    2
     5     3     2    1
     6     3     4    1
     7     4     5    1
     8     5     6    1
     9     6    13    1
    10    13    14    1
    11     6     7    1
    12     7     8    1
    13     7     9    1
    14     9    10    1
    15     4    11    1
    16    11     1    1
    17     9     3    1
    18    16    17    1
    19    14    15    1
    20    10    12    1
