@<TRIPOS>MOLECULE
*****
 31 35 0 0 0
SMALL
GASTEIGER

@<TRIPOS>ATOM
      1 C          62.1880   85.9635   10.9254 C.ar    1  UNL1        0.0846
      2 C          61.0150   86.2045   10.0220 C.ar    1  UNL1        0.0370
      3 C          60.6042   87.6397   10.1688 C.ar    1  UNL1        0.0967
      4 N          61.5232   88.2856   11.1629 N.ar    1  UNL1       -0.2452
      5 N          62.5020   87.2496   11.6305 N.ar    1  UNL1       -0.1730
      6 C          62.9186   84.6643   11.0941 C.3     1  UNL1        0.0757
      7 N          64.3020   85.4358   16.0429 N.pl3   1  UNL1       -0.3441
      8 C          63.8730   84.5104   14.9432 C.ar    1  UNL1        0.1035
      9 C          63.6103   85.0500   13.5686 C.ar    1  UNL1        0.0297
     10 C          63.1813   84.1246   12.4687 C.ar    1  UNL1        0.0090
     11 C          63.0150   82.6595   12.7437 C.ar    1  UNL1        0.1366
     12 N          62.6069   81.5136   11.8659 N.ar    1  UNL1       -0.1258
     13 N          62.6174   80.2656   12.6982 N.ar    1  UNL1       -0.0406
     14 N          63.0320   80.6402   14.0902 N.ar    1  UNL1       -0.1095
     15 C          63.2777   82.1197   14.1183 C.ar    1  UNL1        0.1838
     16 N          63.7067   83.0452   15.2181 N.ar    1  UNL1       -0.3249
     17 H          64.4112   86.3975   15.8625 H       1  UNL1        0.1437
     18 H          64.4745   85.0816   16.9452 H       1  UNL1        0.1437
     19 H          63.8791   82.6909   16.1203 H       1  UNL1        0.1686
     20 C          61.4723   89.7162   11.6108 C.3     1  UNL1        0.1538
     21 C          62.7395   90.5097   11.7322 C.ar    1  UNL1        0.0018
     22 C          63.2557   91.2832   10.5552 C.ar    1  UNL1       -0.0026
     23 C          64.5228   92.0766   10.6765 C.ar    1  UNL1       -0.0035
     24 C          65.2738   92.0966   11.9749 C.ar    1  UNL1       -0.0103
     25 C          64.7576   91.3231   13.1518 C.ar    1  UNL1       -0.0237
     26 C          63.4904   90.5296   13.0305 C.ar    1  UNL1       -0.0068
     27 C          65.5086   91.3431   14.4501 C.3     1  UNL1        0.0431
     28 C          66.7757   92.1365   14.5715 C.3     1  UNL1        0.0735
     29 N          67.2919   92.9100   13.3945 N.3     1  UNL1       -0.2935
     30 C          66.5409   92.8900   12.0962 C.3     1  UNL1        0.0953
     31 H          68.2286   92.5573   13.1983 H       1  UNL1        0.1236
@<TRIPOS>BOND
     1     7     8    1
     2     8     9   ar
     3     9    10   ar
     4    10     6    1
     5     6     1    1
     6     1     2   ar
     7     2     3   ar
     8     3     4   ar
     9     4    20    1
    10    20    21    1
    11    21    22   ar
    12    22    23   ar
    13    23    24   ar
    14    24    25   ar
    15    25    26   ar
    16    25    27    1
    17    27    28    1
    18    28    29    1
    19    29    30    1
    20     4     5   ar
    21    10    11   ar
    22    11    12   ar
    23    12    13   ar
    24    13    14   ar
    25    14    15   ar
    26    15    16   ar
    27    16     8   ar
    28     5     1   ar
    29    15    11    1
    30    26    21   ar
    31    30    24    1
    32     7    17    1
    33     7    18    1
    34    29    31    1
    35    16    19    1
@<TRIPOS>MOLECULE
*****
 31 35 0 0 0
SMALL
GASTEIGER

@<TRIPOS>ATOM
      1 C          62.2851   85.8479   10.9811 C.ar    1  UNL1        0.0846
      2 C          61.1065   86.0075   10.0671 C.ar    1  UNL1        0.0370
      3 C          60.6403   87.4304   10.1560 C.ar    1  UNL1        0.0967
      4 N          61.5307   88.1503   11.1249 N.ar    1  UNL1       -0.2452
      5 N          62.5473   87.1722   11.6349 N.ar    1  UNL1       -0.1730
      6 C          63.0647   84.5857   11.2025 C.3     1  UNL1        0.0757
      7 N          61.8368   80.0475   13.4155 N.pl3   1  UNL1       -0.3441
      8 C          62.2126   81.4942   13.5407 C.ar    1  UNL1        0.1035
      9 C          62.4507   82.3165   12.3091 C.ar    1  UNL1        0.0297
     10 C          62.8266   83.7634   12.4343 C.ar    1  UNL1        0.0090
     11 C          62.9643   84.3877   13.7911 C.ar    1  UNL1        0.1366
     12 N          63.3199   85.7791   14.2243 N.ar    1  UNL1       -0.1258
     13 N          63.3015   85.8167   15.7237 N.ar    1  UNL1       -0.0406
     14 N          62.9346   84.4485   16.2172 N.ar    1  UNL1       -0.1095
     15 C          62.7262   83.5654   15.0228 C.ar    1  UNL1        0.1838
     16 N          62.3504   82.1187   14.8976 N.ar    1  UNL1       -0.3249
     17 H          61.7464   79.6376   12.5250 H       1  UNL1        0.1437
     18 H          61.6805   79.5078   14.2240 H       1  UNL1        0.1437
     19 H          62.1941   81.5789   15.7060 H       1  UNL1        0.1686
     20 C          61.4235   89.5945   11.5154 C.3     1  UNL1        0.1538
     21 C          62.6615   90.4331   11.6348 C.ar    1  UNL1        0.0018
     22 C          63.1607   91.2063   10.4504 C.ar    1  UNL1       -0.0026
     23 C          64.3986   92.0449   10.5697 C.ar    1  UNL1       -0.0035
     24 C          65.1374   92.1103   11.8736 C.ar    1  UNL1       -0.0103
     25 C          64.6382   91.3371   13.0581 C.ar    1  UNL1       -0.0237
     26 C          63.4002   90.4985   12.9386 C.ar    1  UNL1       -0.0068
     27 C          65.3768   91.4025   14.3619 C.3     1  UNL1        0.0431
     28 C          66.6148   92.2411   14.4813 C.3     1  UNL1        0.0735
     29 N          67.1140   93.0143   13.2968 N.3     1  UNL1       -0.2935
     30 C          66.3753   92.9489   11.9930 C.3     1  UNL1        0.0953
     31 H          68.0640   92.6913   13.1135 H       1  UNL1        0.1236
@<TRIPOS>BOND
     1     7     8    1
     2     8     9   ar
     3     9    10   ar
     4    10     6    1
     5     6     1    1
     6     1     2   ar
     7     2     3   ar
     8     3     4   ar
     9     4    20    1
    10    20    21    1
    11    21    22   ar
    12    22    23   ar
    13    23    24   ar
    14    24    25   ar
    15    25    26   ar
    16    25    27    1
    17    27    28    1
    18    28    29    1
    19    29    30    1
    20     4     5   ar
    21    10    11   ar
    22    11    12   ar
    23    12    13   ar
    24    13    14   ar
    25    14    15   ar
    26    15    16   ar
    27    16     8   ar
    28     5     1   ar
    29    15    11    1
    30    26    21   ar
    31    30    24    1
    32     7    17    1
    33     7    18    1
    34    29    31    1
    35    16    19    1
@<TRIPOS>MOLECULE
*****
 31 35 0 0 0
SMALL
GASTEIGER

@<TRIPOS>ATOM
      1 C          61.3533   88.9575    9.7461 C.ar    1  UNL1        0.0846
      2 C          60.2038   88.2989    9.0426 C.ar    1  UNL1        0.0370
      3 C          60.6338   86.9182    8.6443 C.ar    1  UNL1        0.0967
      4 N          62.0491   86.7235    9.1015 N.ar    1  UNL1       -0.2452
      5 N          62.4938   87.9838    9.7825 N.ar    1  UNL1       -0.1730
      6 C          61.3610   90.3460   10.3136 C.3     1  UNL1        0.0757
      7 N          65.7650   93.0954   10.0995 N.pl3   1  UNL1       -0.3441
      8 C          64.7970   92.2513   10.8743 C.ar    1  UNL1        0.1035
      9 C          63.5630   91.7207   10.2066 C.ar    1  UNL1        0.0297
     10 C          62.5949   90.8765   10.9814 C.ar    1  UNL1        0.0090
     11 C          62.8609   90.5629   12.4238 C.ar    1  UNL1        0.1366
     12 N          62.0940   89.7632   13.4350 N.ar    1  UNL1       -0.1258
     13 N          62.8541   89.7995   14.7277 N.ar    1  UNL1       -0.0406
     14 N          64.0907   90.6216   14.5155 N.ar    1  UNL1       -0.1095
     15 C          64.0949   91.0934   13.0916 C.ar    1  UNL1        0.1838
     16 N          65.0629   91.9376   12.3168 N.ar    1  UNL1       -0.3249
     17 H          65.5904   93.3013    9.1527 H       1  UNL1        0.1437
     18 H          66.5749   93.4436   10.5378 H       1  UNL1        0.1437
     19 H          65.8728   92.2858   12.7551 H       1  UNL1        0.1686
     20 C          62.8748   85.4858    8.9112 C.3     1  UNL1        0.1538
     21 C          63.1155   84.5597   10.0665 C.ar    1  UNL1        0.0018
     22 C          63.8738   83.2824    9.8585 C.ar    1  UNL1       -0.0026
     23 C          64.1145   82.3564   11.0137 C.ar    1  UNL1       -0.0035
     24 C          63.5969   82.7077   12.3771 C.ar    1  UNL1       -0.0103
     25 C          62.8386   83.9851   12.5851 C.ar    1  UNL1       -0.0237
     26 C          62.5979   84.9111   11.4298 C.ar    1  UNL1       -0.0068
     27 C          62.3210   84.3365   13.9484 C.3     1  UNL1        0.0431
     28 C          62.5617   83.4105   15.1036 C.3     1  UNL1        0.0735
     29 N          63.3200   82.1331   14.8955 N.3     1  UNL1       -0.2935
     30 C          63.8376   81.7818   13.5323 C.3     1  UNL1        0.0953
     31 H          62.7014   81.3738   15.1804 H       1  UNL1        0.1236
@<TRIPOS>BOND
     1     7     8    1
     2     8     9   ar
     3     9    10   ar
     4    10     6    1
     5     6     1    1
     6     1     2   ar
     7     2     3   ar
     8     3     4   ar
     9     4    20    1
    10    20    21    1
    11    21    22   ar
    12    22    23   ar
    13    23    24   ar
    14    24    25   ar
    15    25    26   ar
    16    25    27    1
    17    27    28    1
    18    28    29    1
    19    29    30    1
    20     4     5   ar
    21    10    11   ar
    22    11    12   ar
    23    12    13   ar
    24    13    14   ar
    25    14    15   ar
    26    15    16   ar
    27    16     8   ar
    28     5     1   ar
    29    15    11    1
    30    26    21   ar
    31    30    24    1
    32     7    17    1
    33     7    18    1
    34    29    31    1
    35    16    19    1
@<TRIPOS>MOLECULE
*****
 31 35 0 0 0
SMALL
GASTEIGER

@<TRIPOS>ATOM
      1 C          62.2563   90.2012   10.2928 C.ar    1  UNL1        0.0846
      2 C          60.7568   90.2017   10.3361 C.ar    1  UNL1        0.0370
      3 C          60.2802   88.8476    9.9013 C.ar    1  UNL1        0.0967
      4 N          61.4850   88.0102    9.5894 N.ar    1  UNL1       -0.2452
      5 N          62.7062   88.8468    9.8313 N.ar    1  UNL1       -0.1730
      6 C          63.1490   91.3530   10.6486 C.3     1  UNL1        0.0757
      7 N          63.3473   89.9199   15.6393 N.pl3   1  UNL1       -0.3441
      8 C          63.9297   90.6723   14.4797 C.ar    1  UNL1        0.1035
      9 C          63.2482   90.6365   13.1440 C.ar    1  UNL1        0.0297
     10 C          63.8305   91.3889   11.9843 C.ar    1  UNL1        0.0090
     11 C          65.0944   92.1771   12.1605 C.ar    1  UNL1        0.1366
     12 N          65.8977   93.0120   11.2076 N.ar    1  UNL1       -0.1258
     13 N          67.0757   93.5639   11.9546 N.ar    1  UNL1       -0.0406
     14 N          67.0005   93.0700   13.3690 N.ar    1  UNL1       -0.1095
     15 C          65.7760   92.2130   13.4962 C.ar    1  UNL1        0.1838
     16 N          65.1937   91.4606   14.6558 N.ar    1  UNL1       -0.3249
     17 H          62.5177   89.4026   15.5237 H       1  UNL1        0.1437
     18 H          63.7946   89.9435   16.5160 H       1  UNL1        0.1437
     19 H          65.6410   91.4841   15.5325 H       1  UNL1        0.1686
     20 C          61.4709   86.5862    9.1182 C.3     1  UNL1        0.1538
     21 C          62.2038   85.5322    9.8941 C.ar    1  UNL1        0.0018
     22 C          63.1223   84.5815    9.1851 C.ar    1  UNL1       -0.0026
     23 C          63.8551   83.5275    9.9610 C.ar    1  UNL1       -0.0035
     24 C          63.6694   83.4241   11.4459 C.ar    1  UNL1       -0.0103
     25 C          62.7509   84.3747   12.1549 C.ar    1  UNL1       -0.0237
     26 C          62.0181   85.4288   11.3789 C.ar    1  UNL1       -0.0068
     27 C          62.5652   84.2714   13.6397 C.3     1  UNL1        0.0431
     28 C          63.2981   83.2174   14.4156 C.3     1  UNL1        0.0735
     29 N          64.2166   82.2667   13.7066 N.3     1  UNL1       -0.2935
     30 C          64.4023   82.3701   12.2218 C.3     1  UNL1        0.0953
     31 H          63.8696   81.3263   13.8952 H       1  UNL1        0.1236
@<TRIPOS>BOND
     1     7     8    1
     2     8     9   ar
     3     9    10   ar
     4    10     6    1
     5     6     1    1
     6     1     2   ar
     7     2     3   ar
     8     3     4   ar
     9     4    20    1
    10    20    21    1
    11    21    22   ar
    12    22    23   ar
    13    23    24   ar
    14    24    25   ar
    15    25    26   ar
    16    25    27    1
    17    27    28    1
    18    28    29    1
    19    29    30    1
    20     4     5   ar
    21    10    11   ar
    22    11    12   ar
    23    12    13   ar
    24    13    14   ar
    25    14    15   ar
    26    15    16   ar
    27    16     8   ar
    28     5     1   ar
    29    15    11    1
    30    26    21   ar
    31    30    24    1
    32     7    17    1
    33     7    18    1
    34    29    31    1
    35    16    19    1
@<TRIPOS>MOLECULE
*****
 31 35 0 0 0
SMALL
GASTEIGER

@<TRIPOS>ATOM
      1 C          62.8885   90.1158   11.8137 C.ar    1  UNL1        0.0846
      2 C          62.1759   90.7947   10.6817 C.ar    1  UNL1        0.0370
      3 C          61.5407   89.7347    9.8315 C.ar    1  UNL1        0.0967
      4 N          61.8606   88.4006   10.4381 N.ar    1  UNL1       -0.2452
      5 N          62.6936   88.6361   11.6631 N.ar    1  UNL1       -0.1730
      6 C          63.6604   90.7969   12.9047 C.3     1  UNL1        0.0757
      7 N          65.9874   94.0524    9.5901 N.pl3   1  UNL1       -0.3441
      8 C          65.9713   93.3274   10.9031 C.ar    1  UNL1        0.1035
      9 C          64.8240   92.4247   11.2474 C.ar    1  UNL1        0.0297
     10 C          64.8078   91.6996   12.5605 C.ar    1  UNL1        0.0090
     11 C          65.9391   91.8774   13.5292 C.ar    1  UNL1        0.1366
     12 N          66.1968   91.2978   14.8886 N.ar    1  UNL1       -0.1258
     13 N          67.5036   91.8425   15.3844 N.ar    1  UNL1       -0.0406
     14 N          68.0534   92.7586   14.3315 N.ar    1  UNL1       -0.1095
     15 C          67.0865   92.7801   13.1850 C.ar    1  UNL1        0.1838
     16 N          67.1026   93.5051   11.8719 N.ar    1  UNL1       -0.3249
     17 H          65.2449   93.9358    8.9542 H       1  UNL1        0.1437
     18 H          66.7405   94.6449    9.3641 H       1  UNL1        0.1437
     19 H          67.8557   94.0976   11.6460 H       1  UNL1        0.1686
     20 C          61.4242   87.0654    9.9120 C.3     1  UNL1        0.1538
     21 C          62.1439   85.8200   10.3374 C.ar    1  UNL1        0.0018
     22 C          62.9497   85.0417    9.3399 C.ar    1  UNL1       -0.0026
     23 C          63.6694   83.7963    9.7652 C.ar    1  UNL1       -0.0035
     24 C          63.5833   83.3291   11.1881 C.ar    1  UNL1       -0.0103
     25 C          62.7775   84.1074   12.1855 C.ar    1  UNL1       -0.0237
     26 C          62.0578   85.3528   11.7602 C.ar    1  UNL1       -0.0068
     27 C          62.6914   83.6402   13.6083 C.3     1  UNL1        0.0431
     28 C          63.4111   82.3948   14.0336 C.3     1  UNL1        0.0735
     29 N          64.2169   81.6165   13.0362 N.3     1  UNL1       -0.2935
     30 C          64.3030   82.0837   11.6134 C.3     1  UNL1        0.0953
     31 H          63.8270   80.6743   13.0136 H       1  UNL1        0.1236
@<TRIPOS>BOND
     1     7     8    1
     2     8     9   ar
     3     9    10   ar
     4    10     6    1
     5     6     1    1
     6     1     2   ar
     7     2     3   ar
     8     3     4   ar
     9     4    20    1
    10    20    21    1
    11    21    22   ar
    12    22    23   ar
    13    23    24   ar
    14    24    25   ar
    15    25    26   ar
    16    25    27    1
    17    27    28    1
    18    28    29    1
    19    29    30    1
    20     4     5   ar
    21    10    11   ar
    22    11    12   ar
    23    12    13   ar
    24    13    14   ar
    25    14    15   ar
    26    15    16   ar
    27    16     8   ar
    28     5     1   ar
    29    15    11    1
    30    26    21   ar
    31    30    24    1
    32     7    17    1
    33     7    18    1
    34    29    31    1
    35    16    19    1
@<TRIPOS>MOLECULE
*****
 31 35 0 0 0
SMALL
GASTEIGER

@<TRIPOS>ATOM
      1 C          63.7971   85.9387   15.9253 C.ar    1  UNL1        0.0846
      2 C          63.0159   85.9861   17.2050 C.ar    1  UNL1        0.0370
      3 C          62.7349   87.4247   17.5235 C.ar    1  UNL1        0.0967
      4 N          63.3424   88.2664   16.4406 N.ar    1  UNL1       -0.2452
      5 N          63.9988   87.3480   15.4529 N.ar    1  UNL1       -0.1730
      6 C          64.2899   84.6995   15.2386 C.3     1  UNL1        0.0757
      7 N          62.3654   85.8478   10.5506 N.pl3   1  UNL1       -0.3441
      8 C          62.7050   84.8341   11.6027 C.ar    1  UNL1        0.1035
      9 C          63.3276   85.2737   12.8945 C.ar    1  UNL1        0.0297
     10 C          63.6672   84.2599   13.9467 C.ar    1  UNL1        0.0090
     11 C          63.3841   82.8066   13.7069 C.ar    1  UNL1        0.1366
     12 N          63.6075   81.5877   14.5523 N.ar    1  UNL1       -0.1258
     13 N          63.1228   80.3948   13.7827 N.ar    1  UNL1       -0.0406
     14 N          62.5999   80.8764   12.4619 N.ar    1  UNL1       -0.1095
     15 C          62.7614   82.3669   12.4151 C.ar    1  UNL1        0.1838
     16 N          62.4218   83.3807   11.3629 N.ar    1  UNL1       -0.3249
     17 H          62.5512   86.8018   10.7079 H       1  UNL1        0.1437
     18 H          61.9567   85.5593    9.7027 H       1  UNL1        0.1437
     19 H          62.0131   83.0921   10.5150 H       1  UNL1        0.1686
     20 C          63.3007   89.7636   16.3596 C.3     1  UNL1        0.1538
     21 C          63.8232   90.4637   15.1402 C.ar    1  UNL1        0.0018
     22 C          65.0575   91.3111   15.2329 C.ar    1  UNL1       -0.0026
     23 C          65.5800   92.0111   14.0136 C.ar    1  UNL1       -0.0035
     24 C          64.8683   91.8637   12.7014 C.ar    1  UNL1       -0.0103
     25 C          63.6341   91.0163   12.6086 C.ar    1  UNL1       -0.0237
     26 C          63.1116   90.3162   13.8281 C.ar    1  UNL1       -0.0068
     27 C          62.9224   90.8689   11.2965 C.3     1  UNL1        0.0431
     28 C          63.4449   91.5689   10.0771 C.3     1  UNL1        0.0735
     29 N          64.6791   92.4163   10.1699 N.3     1  UNL1       -0.2935
     30 C          65.3908   92.5637   11.4820 C.3     1  UNL1        0.0953
     31 H          64.4149   93.3551    9.8711 H       1  UNL1        0.1236
@<TRIPOS>BOND
     1     7     8    1
     2     8     9   ar
     3     9    10   ar
     4    10     6    1
     5     6     1    1
     6     1     2   ar
     7     2     3   ar
     8     3     4   ar
     9     4    20    1
    10    20    21    1
    11    21    22   ar
    12    22    23   ar
    13    23    24   ar
    14    24    25   ar
    15    25    26   ar
    16    25    27    1
    17    27    28    1
    18    28    29    1
    19    29    30    1
    20     4     5   ar
    21    10    11   ar
    22    11    12   ar
    23    12    13   ar
    24    13    14   ar
    25    14    15   ar
    26    15    16   ar
    27    16     8   ar
    28     5     1   ar
    29    15    11    1
    30    26    21   ar
    31    30    24    1
    32     7    17    1
    33     7    18    1
    34    29    31    1
    35    16    19    1
@<TRIPOS>MOLECULE
*****
 31 35 0 0 0
SMALL
GASTEIGER

@<TRIPOS>ATOM
      1 C          62.2678   90.5264   10.7163 C.ar    1  UNL1        0.0846
      2 C          60.8025   90.5730   11.0339 C.ar    1  UNL1        0.0370
      3 C          60.1857   89.2884   10.5655 C.ar    1  UNL1        0.0967
      4 N          61.2697   88.4480    9.9583 N.ar    1  UNL1       -0.2452
      5 N          62.5565   89.2131   10.0515 N.ar    1  UNL1       -0.1730
      6 C          63.2687   91.6040   11.0115 C.3     1  UNL1        0.0757
      7 N          67.9102   92.4253   13.1983 N.pl3   1  UNL1       -0.3441
      8 C          66.5162   91.8770   13.2763 C.ar    1  UNL1        0.1035
      9 C          65.5895   92.0146   12.1050 C.ar    1  UNL1        0.0297
     10 C          64.1954   91.4663   12.1830 C.ar    1  UNL1        0.0090
     11 C          63.7282   90.7805   13.4324 C.ar    1  UNL1        0.1366
     12 N          62.4197   90.1453   13.7993 N.ar    1  UNL1       -0.1258
     13 N          62.5378   89.6151   15.1976 N.ar    1  UNL1       -0.0406
     14 N          63.9192   89.9226   15.6948 N.ar    1  UNL1       -0.1095
     15 C          64.6549   90.6428   14.6038 C.ar    1  UNL1        0.1838
     16 N          66.0489   91.1911   14.5258 N.ar    1  UNL1       -0.3249
     17 H          68.2169   92.8755   12.3782 H       1  UNL1        0.1437
     18 H          68.5184   92.3350   13.9671 H       1  UNL1        0.1437
     19 H          66.6571   91.1008   15.2946 H       1  UNL1        0.1686
     20 C          61.0972   87.0823    9.3626 C.3     1  UNL1        0.1538
     21 C          61.9567   85.9456    9.8311 C.ar    1  UNL1        0.0018
     22 C          62.8163   85.2023    8.8520 C.ar    1  UNL1       -0.0026
     23 C          63.6758   84.0657    9.3204 C.ar    1  UNL1       -0.0035
     24 C          63.6756   83.6723   10.7679 C.ar    1  UNL1       -0.0103
     25 C          62.8160   84.4156   11.7470 C.ar    1  UNL1       -0.0237
     26 C          61.9565   85.5523   11.2785 C.ar    1  UNL1       -0.0068
     27 C          62.8158   84.0223   13.1945 C.3     1  UNL1        0.0431
     28 C          63.6753   82.8857   13.6629 C.3     1  UNL1        0.0735
     29 N          64.5349   82.1424   12.6838 N.3     1  UNL1       -0.2935
     30 C          64.5351   82.5357   11.2363 C.3     1  UNL1        0.0953
     31 H          64.2479   81.1644   12.7231 H       1  UNL1        0.1236
@<TRIPOS>BOND
     1     7     8    1
     2     8     9   ar
     3     9    10   ar
     4    10     6    1
     5     6     1    1
     6     1     2   ar
     7     2     3   ar
     8     3     4   ar
     9     4    20    1
    10    20    21    1
    11    21    22   ar
    12    22    23   ar
    13    23    24   ar
    14    24    25   ar
    15    25    26   ar
    16    25    27    1
    17    27    28    1
    18    28    29    1
    19    29    30    1
    20     4     5   ar
    21    10    11   ar
    22    11    12   ar
    23    12    13   ar
    24    13    14   ar
    25    14    15   ar
    26    15    16   ar
    27    16     8   ar
    28     5     1   ar
    29    15    11    1
    30    26    21   ar
    31    30    24    1
    32     7    17    1
    33     7    18    1
    34    29    31    1
    35    16    19    1
@<TRIPOS>MOLECULE
*****
 31 35 0 0 0
SMALL
GASTEIGER

@<TRIPOS>ATOM
      1 C          63.0912   84.6103   11.1782 C.ar    1  UNL1        0.0846
      2 C          63.8350   83.3222   11.3727 C.ar    1  UNL1        0.0370
      3 C          64.2638   83.2469   12.8081 C.ar    1  UNL1        0.0967
      4 N          63.7851   84.4884   13.5007 N.ar    1  UNL1       -0.2452
      5 N          63.0604   85.3310   12.4933 N.ar    1  UNL1       -0.1730
      6 C          62.4848   85.0929    9.8939 C.3     1  UNL1        0.0757
      7 N          62.4487   90.0538   11.4393 N.pl3   1  UNL1       -0.3441
      8 C          61.8920   88.9563   10.5817 C.ar    1  UNL1        0.1035
      9 C          62.4667   87.5734   10.6666 C.ar    1  UNL1        0.0297
     10 C          61.9099   86.4758    9.8090 C.ar    1  UNL1        0.0090
     11 C          60.7784   86.7612    8.8667 C.ar    1  UNL1        0.1366
     12 N          60.0290   85.8878    7.9045 N.ar    1  UNL1       -0.1258
     13 N          58.9910   86.7310    7.2250 N.ar    1  UNL1       -0.0406
     14 N          59.0989   88.1254    7.7672 N.ar    1  UNL1       -0.1095
     15 C          60.2036   88.1441    8.7818 C.ar    1  UNL1        0.1838
     16 N          60.7604   89.2416    9.6393 N.ar    1  UNL1       -0.3249
     17 H          63.1914   89.8665   12.0578 H       1  UNL1        0.1437
     18 H          62.0715   90.9615   11.3836 H       1  UNL1        0.1437
     19 H          60.3831   90.1493    9.5836 H       1  UNL1        0.1686
     20 C          63.9944   84.8276   14.9467 C.3     1  UNL1        0.1538
     21 C          63.8285   86.2424   15.4168 C.ar    1  UNL1        0.0018
     22 C          63.1411   86.5241   16.7199 C.ar    1  UNL1       -0.0026
     23 C          62.9753   87.9388   17.1900 C.ar    1  UNL1       -0.0035
     24 C          63.4969   89.0720   16.3569 C.ar    1  UNL1       -0.0103
     25 C          64.1843   88.7903   15.0538 C.ar    1  UNL1       -0.0237
     26 C          64.3501   87.3755   14.5837 C.ar    1  UNL1       -0.0068
     27 C          64.7058   89.9234   14.2207 C.3     1  UNL1        0.0431
     28 C          64.5400   91.3382   14.6908 C.3     1  UNL1        0.0735
     29 N          63.8526   91.6198   15.9939 N.3     1  UNL1       -0.2935
     30 C          63.3310   90.4867   16.8270 C.3     1  UNL1        0.0953
     31 H          63.0561   92.2210   15.7828 H       1  UNL1        0.1236
@<TRIPOS>BOND
     1     7     8    1
     2     8     9   ar
     3     9    10   ar
     4    10     6    1
     5     6     1    1
     6     1     2   ar
     7     2     3   ar
     8     3     4   ar
     9     4    20    1
    10    20    21    1
    11    21    22   ar
    12    22    23   ar
    13    23    24   ar
    14    24    25   ar
    15    25    26   ar
    16    25    27    1
    17    27    28    1
    18    28    29    1
    19    29    30    1
    20     4     5   ar
    21    10    11   ar
    22    11    12   ar
    23    12    13   ar
    24    13    14   ar
    25    14    15   ar
    26    15    16   ar
    27    16     8   ar
    28     5     1   ar
    29    15    11    1
    30    26    21   ar
    31    30    24    1
    32     7    17    1
    33     7    18    1
    34    29    31    1
    35    16    19    1
@<TRIPOS>MOLECULE
*****
 31 35 0 0 0
SMALL
GASTEIGER

@<TRIPOS>ATOM
      1 C          63.0809   84.4066   11.2935 C.ar    1  UNL1        0.0846
      2 C          62.9852   82.9658   11.6998 C.ar    1  UNL1        0.0370
      3 C          63.2821   82.8775   13.1675 C.ar    1  UNL1        0.0967
      4 N          63.5612   84.2636   13.6682 N.ar    1  UNL1       -0.2452
      5 N          63.4369   85.2087   12.5101 N.ar    1  UNL1       -0.1730
      6 C          62.8594   84.9500    9.9130 C.3     1  UNL1        0.0757
      7 N          58.6627   86.5632    7.3082 N.pl3   1  UNL1       -0.3441
      8 C          59.6968   86.7863    8.3716 C.ar    1  UNL1        0.1035
      9 C          60.7610   85.7566    8.6106 C.ar    1  UNL1        0.0297
     10 C          61.7952   85.9797    9.6741 C.ar    1  UNL1        0.0090
     11 C          61.7650   87.2324   10.4984 C.ar    1  UNL1        0.1366
     12 N          62.6452   87.7245   11.6089 N.ar    1  UNL1       -0.1258
     13 N          62.1248   89.0584   12.0562 N.ar    1  UNL1       -0.0406
     14 N          60.9231   89.3907   11.2222 N.ar    1  UNL1       -0.1095
     15 C          60.7008   88.2621   10.2594 C.ar    1  UNL1        0.1838
     16 N          59.6667   88.0390    9.1960 N.ar    1  UNL1       -0.3249
     17 H          58.6825   85.7410    6.7671 H       1  UNL1        0.1437
     18 H          57.9642   87.2390    7.1513 H       1  UNL1        0.1437
     19 H          58.9682   88.7149    9.0392 H       1  UNL1        0.1686
     20 C          63.9045   84.6388   15.0794 C.3     1  UNL1        0.1538
     21 C          63.7540   86.0600   15.5354 C.ar    1  UNL1        0.0018
     22 C          63.0605   86.3627   16.8305 C.ar    1  UNL1       -0.0026
     23 C          62.9101   87.7837   17.2865 C.ar    1  UNL1       -0.0035
     24 C          63.4532   88.9022   16.4473 C.ar    1  UNL1       -0.0103
     25 C          64.1468   88.5995   15.1522 C.ar    1  UNL1       -0.0237
     26 C          64.2972   87.1783   14.6962 C.ar    1  UNL1       -0.0068
     27 C          64.6899   89.7178   14.3130 C.3     1  UNL1        0.0431
     28 C          64.5395   91.1389   14.7690 C.3     1  UNL1        0.0735
     29 N          63.8459   91.4416   16.0641 N.3     1  UNL1       -0.2935
     30 C          63.3028   90.3232   16.9033 C.3     1  UNL1        0.0953
     31 H          63.0593   92.0514   15.8413 H       1  UNL1        0.1236
@<TRIPOS>BOND
     1     7     8    1
     2     8     9   ar
     3     9    10   ar
     4    10     6    1
     5     6     1    1
     6     1     2   ar
     7     2     3   ar
     8     3     4   ar
     9     4    20    1
    10    20    21    1
    11    21    22   ar
    12    22    23   ar
    13    23    24   ar
    14    24    25   ar
    15    25    26   ar
    16    25    27    1
    17    27    28    1
    18    28    29    1
    19    29    30    1
    20     4     5   ar
    21    10    11   ar
    22    11    12   ar
    23    12    13   ar
    24    13    14   ar
    25    14    15   ar
    26    15    16   ar
    27    16     8   ar
    28     5     1   ar
    29    15    11    1
    30    26    21   ar
    31    30    24    1
    32     7    17    1
    33     7    18    1
    34    29    31    1
    35    16    19    1
