@<TRIPOS>MOLECULE
*****
 34 37 0 0 0
SMALL
GASTEIGER

@<TRIPOS>ATOM
      1 N          62.8840   86.6586   14.2676 N.am    1  UNL1       -0.2533
      2 C          63.5035   87.7893   13.5011 C.2     1  UNL1        0.3092
      3 O          63.9679   87.5739   12.0911 O.2     1  UNL1       -0.2521
      4 N          63.6587   89.1354   14.1444 N.am    1  UNL1       -0.2680
      5 H          62.5792   86.8000   15.1930 H       1  UNL1        0.1578
      6 H          63.3539   89.2768   15.0698 H       1  UNL1        0.1564
      7 C          64.2782   90.2661   13.3777 C.ar    1  UNL1        0.0516
      8 C          65.4779   90.9777   13.9293 C.ar    1  UNL1        0.0147
      9 C          66.0974   92.1084   13.1626 C.ar    1  UNL1        0.0013
     10 C          65.5173   92.5275   11.8444 C.ar    1  UNL1        0.0002
     11 C          64.3175   91.8159   11.2929 C.ar    1  UNL1        0.0013
     12 C          63.6980   90.6852   12.0595 C.ar    1  UNL1        0.0147
     13 C          66.1368   93.6582   11.0778 C.ar    1  UNL1        0.0031
     14 C          66.9440   93.3753    9.8455 C.ar    1  UNL1        0.0207
     15 C          67.5635   94.5060    9.0789 C.ar    1  UNL1        0.0989
     16 N          67.3758   95.9195    9.5445 N.ar    1  UNL1       -0.2423
     17 C          66.5686   96.2023   10.7768 C.ar    1  UNL1        0.0989
     18 C          65.9491   95.0716   11.5434 C.ar    1  UNL1        0.0207
     19 N          62.1689   85.0474   12.2583 N.ar    1  UNL1       -0.2162
     20 N          62.2003   83.5661   12.0239 N.ar    1  UNL1       -0.1683
     21 C          62.7797   82.9158   13.2451 C.ar    1  UNL1        0.0810
     22 C          63.1063   83.9951   14.2343 C.ar    1  UNL1        0.0509
     23 C          62.7288   85.3124   13.6243 C.ar    1  UNL1        0.1380
     24 C          60.1567   89.1854    8.4075 C.3     1  UNL1        0.0310
     25 C          60.6598   88.1509    9.3702 C.ar    1  UNL1       -0.0218
     26 C          61.6301   87.1048    8.9076 C.ar    1  UNL1       -0.0027
     27 C          62.1331   86.0702    9.8703 C.ar    1  UNL1        0.0189
     28 C          61.6658   86.0819   11.2956 C.ar    1  UNL1        0.0842
     29 C          60.6955   87.1280   11.7582 C.ar    1  UNL1        0.0189
     30 C          60.1925   88.1625   10.7955 C.ar    1  UNL1       -0.0027
     31 C          62.9947   81.4444   13.4425 C.3     1  UNL1        0.0372
     32 C          64.3108   81.5411   12.7295 C.3     1  UNL1        0.0060
     33 C          61.6785   81.3478   14.1555 C.3     1  UNL1        0.0060
     34 C          63.2097   79.9731   13.6399 C.3     1  UNL1        0.0060
@<TRIPOS>BOND
     1    24    25    1
     2    25    26   ar
     3    26    27   ar
     4    27    28   ar
     5    28    19    1
     6    19    20   ar
     7    20    21   ar
     8    21    31    1
     9    31    32    1
    10    31    33    1
    11    31    34    1
    12    21    22   ar
    13    22    23   ar
    14    23     1    1
    15     1     2   am
    16     2     3    2
    17     2     4   am
    18     4     7    1
    19     7     8   ar
    20     8     9   ar
    21     9    10   ar
    22    10    13    1
    23    13    14   ar
    24    14    15   ar
    25    15    16   ar
    26    16    17   ar
    27    17    18   ar
    28    10    11   ar
    29    11    12   ar
    30    28    29   ar
    31    29    30   ar
    32    30    25   ar
    33    23    19   ar
    34    12     7   ar
    35    18    13   ar
    36     1     5    1
    37     4     6    1
@<TRIPOS>MOLECULE
*****
 34 37 0 0 0
SMALL
GASTEIGER

@<TRIPOS>ATOM
      1 N          62.8738   86.6564   14.2693 N.am    1  UNL1       -0.2533
      2 C          63.4975   87.7862   13.5049 C.2     1  UNL1        0.3092
      3 O          63.9686   87.5696   12.0973 O.2     1  UNL1       -0.2521
      4 N          63.6502   89.1327   14.1480 N.am    1  UNL1       -0.2680
      5 H          62.5646   86.7986   15.1931 H       1  UNL1        0.1578
      6 H          63.3411   89.2750   15.0718 H       1  UNL1        0.1564
      7 C          64.2740   90.2626   13.3836 C.ar    1  UNL1        0.0516
      8 C          63.6992   90.6822   12.0631 C.ar    1  UNL1        0.0147
      9 C          64.3230   91.8120   11.2987 C.ar    1  UNL1        0.0013
     10 C          65.5214   92.5223   11.8546 C.ar    1  UNL1        0.0002
     11 C          66.0962   92.1027   13.1751 C.ar    1  UNL1        0.0013
     12 C          65.4724   90.9729   13.9395 C.ar    1  UNL1        0.0147
     13 C          66.1452   93.6522   11.0901 C.ar    1  UNL1        0.0031
     14 C          65.9544   95.0662   11.5528 C.ar    1  UNL1        0.0207
     15 C          66.5781   96.1961   10.7883 C.ar    1  UNL1        0.0989
     16 N          67.3927   95.9118    9.5613 N.ar    1  UNL1       -0.2423
     17 C          67.5835   94.4978    9.0986 C.ar    1  UNL1        0.0989
     18 C          66.9597   93.3679    9.8631 C.ar    1  UNL1        0.0207
     19 N          62.1628   85.0437   12.2596 N.ar    1  UNL1       -0.2162
     20 N          62.1966   83.5624   12.0257 N.ar    1  UNL1       -0.1683
     21 C          62.7757   82.9131   13.2476 C.ar    1  UNL1        0.0810
     22 C          63.0998   83.9932   14.2368 C.ar    1  UNL1        0.0509
     23 C          62.7211   85.3099   13.6262 C.ar    1  UNL1        0.1380
     24 C          60.1485   89.1779    8.4060 C.3     1  UNL1        0.0310
     25 C          60.6521   88.1443    9.3694 C.ar    1  UNL1       -0.0218
     26 C          60.1892   88.1602   10.7960 C.ar    1  UNL1       -0.0027
     27 C          60.6928   87.1266   11.7595 C.ar    1  UNL1        0.0189
     28 C          61.6593   86.0772   11.2962 C.ar    1  UNL1        0.0842
     29 C          62.1222   86.0614    9.8695 C.ar    1  UNL1        0.0189
     30 C          61.6186   87.0949    8.9061 C.ar    1  UNL1       -0.0027
     31 C          62.9925   81.4422   13.4456 C.3     1  UNL1        0.0372
     32 C          64.3022   81.5377   12.7207 C.3     1  UNL1        0.0060
     33 C          61.6827   81.3467   14.1704 C.3     1  UNL1        0.0060
     34 C          63.2093   79.9712   13.6435 C.3     1  UNL1        0.0060
@<TRIPOS>BOND
     1    24    25    1
     2    25    26   ar
     3    26    27   ar
     4    27    28   ar
     5    28    19    1
     6    19    20   ar
     7    20    21   ar
     8    21    31    1
     9    31    32    1
    10    31    33    1
    11    31    34    1
    12    21    22   ar
    13    22    23   ar
    14    23     1    1
    15     1     2   am
    16     2     3    2
    17     2     4   am
    18     4     7    1
    19     7     8   ar
    20     8     9   ar
    21     9    10   ar
    22    10    13    1
    23    13    14   ar
    24    14    15   ar
    25    15    16   ar
    26    16    17   ar
    27    17    18   ar
    28    10    11   ar
    29    11    12   ar
    30    28    29   ar
    31    29    30   ar
    32    30    25   ar
    33    23    19   ar
    34    12     7   ar
    35    18    13   ar
    36     1     5    1
    37     4     6    1
@<TRIPOS>MOLECULE
*****
 34 37 0 0 0
SMALL
GASTEIGER

@<TRIPOS>ATOM
      1 N          60.7784   89.0245   11.0826 N.am    1  UNL1       -0.2533
      2 C          62.0622   89.6713   11.5105 C.2     1  UNL1        0.3092
      3 O          63.0397   90.1527   10.4794 O.2     1  UNL1       -0.2521
      4 N          62.3688   89.8369   12.9695 N.am    1  UNL1       -0.2680
      5 H          60.1369   88.7086   11.7593 H       1  UNL1        0.1578
      6 H          61.7273   89.5210   13.6462 H       1  UNL1        0.1564
      7 C          63.6527   90.4838   13.3973 C.ar    1  UNL1        0.0516
      8 C          64.1597   91.6957   12.6733 C.ar    1  UNL1        0.0147
      9 C          65.4436   92.3425   13.1011 C.ar    1  UNL1        0.0013
     10 C          66.2206   91.7776   14.2531 C.ar    1  UNL1        0.0002
     11 C          65.7137   90.5657   14.9772 C.ar    1  UNL1        0.0013
     12 C          64.4297   89.9188   14.5493 C.ar    1  UNL1        0.0147
     13 C          67.5045   92.4245   14.6809 C.ar    1  UNL1        0.0031
     14 C          68.7940   92.0447   14.0153 C.ar    1  UNL1        0.0207
     15 C          70.0779   92.6915   14.4431 C.ar    1  UNL1        0.0989
     16 N          70.0724   93.7182   15.5367 N.ar    1  UNL1       -0.2423
     17 C          68.7829   94.0980   16.2024 C.ar    1  UNL1        0.0989
     18 C          67.4990   93.4511   15.7745 C.ar    1  UNL1        0.0207
     19 N          60.8607   87.6898    8.7681 N.ar    1  UNL1       -0.2162
     20 N          60.3517   87.9418    7.3798 N.ar    1  UNL1       -0.1683
     21 C          59.6482   89.2666    7.3773 C.ar    1  UNL1        0.0810
     22 C          59.7224   89.8334    8.7641 C.ar    1  UNL1        0.0509
     23 C          60.4718   88.8589    9.6236 C.ar    1  UNL1        0.1380
     24 C          63.9161   82.8547   10.5809 C.3     1  UNL1        0.0310
     25 C          63.1522   84.0635   10.1277 C.ar    1  UNL1       -0.0218
     26 C          63.3165   84.5726    8.7264 C.ar    1  UNL1       -0.0027
     27 C          62.5527   85.7814    8.2732 C.ar    1  UNL1        0.0189
     28 C          61.6246   86.4810    9.2213 C.ar    1  UNL1        0.0842
     29 C          61.4603   85.9719   10.6226 C.ar    1  UNL1        0.0189
     30 C          62.2241   84.7631   11.0758 C.ar    1  UNL1       -0.0027
     31 C          58.9866   89.9113    6.1955 C.3     1  UNL1        0.0372
     32 C          60.3143   90.4413    5.7414 C.3     1  UNL1        0.0060
     33 C          57.6589   89.3812    6.6495 C.3     1  UNL1        0.0060
     34 C          58.3251   90.5560    5.0137 C.3     1  UNL1        0.0060
@<TRIPOS>BOND
     1    24    25    1
     2    25    26   ar
     3    26    27   ar
     4    27    28   ar
     5    28    19    1
     6    19    20   ar
     7    20    21   ar
     8    21    31    1
     9    31    32    1
    10    31    33    1
    11    31    34    1
    12    21    22   ar
    13    22    23   ar
    14    23     1    1
    15     1     2   am
    16     2     3    2
    17     2     4   am
    18     4     7    1
    19     7     8   ar
    20     8     9   ar
    21     9    10   ar
    22    10    13    1
    23    13    14   ar
    24    14    15   ar
    25    15    16   ar
    26    16    17   ar
    27    17    18   ar
    28    10    11   ar
    29    11    12   ar
    30    28    29   ar
    31    29    30   ar
    32    30    25   ar
    33    23    19   ar
    34    12     7   ar
    35    18    13   ar
    36     1     5    1
    37     4     6    1
@<TRIPOS>MOLECULE
*****
 34 37 0 0 0
SMALL
GASTEIGER

@<TRIPOS>ATOM
      1 N          63.5131   88.6778   15.2519 N.am    1  UNL1       -0.2533
      2 C          63.4933   87.3995   14.4674 C.2     1  UNL1        0.3092
      3 O          64.0691   87.3602   13.0828 O.2     1  UNL1       -0.2521
      4 N          62.8976   86.1604   15.0672 N.am    1  UNL1       -0.2680
      5 H          63.1352   88.7035   16.1606 H       1  UNL1        0.1578
      6 H          62.5196   86.1861   15.9759 H       1  UNL1        0.1564
      7 C          62.8778   84.8822   14.2826 C.ar    1  UNL1        0.0516
      8 C          63.0127   83.5661   14.9895 C.ar    1  UNL1        0.0147
      9 C          62.9928   82.2878   14.2049 C.ar    1  UNL1        0.0013
     10 C          62.8381   82.3256   12.7134 C.ar    1  UNL1        0.0002
     11 C          62.7032   83.6417   12.0065 C.ar    1  UNL1        0.0013
     12 C          62.7231   84.9199   12.7911 C.ar    1  UNL1        0.0147
     13 C          62.8183   81.0473   11.9288 C.ar    1  UNL1        0.0031
     14 C          62.5608   79.7438   12.6250 C.ar    1  UNL1        0.0207
     15 C          62.5409   78.4656   11.8403 C.ar    1  UNL1        0.0989
     16 N          62.7787   78.4908   10.3595 N.ar    1  UNL1       -0.2423
     17 C          63.0362   79.7942    9.6633 C.ar    1  UNL1        0.0989
     18 C          63.0561   81.0725   10.4480 C.ar    1  UNL1        0.0207
     19 N          63.7396   90.5216   13.3300 N.ar    1  UNL1       -0.2162
     20 N          64.5809   91.7472   13.1298 N.ar    1  UNL1       -0.1683
     21 C          65.4701   91.8999   14.3282 C.ar    1  UNL1        0.0810
     22 C          65.1783   90.7687   15.2690 C.ar    1  UNL1        0.0509
     23 C          64.1088   89.9168   14.6520 C.ar    1  UNL1        0.1380
     24 C          59.6208   88.4092    9.5125 C.3     1  UNL1        0.0310
     25 C          60.6505   88.9373   10.4668 C.ar    1  UNL1       -0.0218
     26 C          62.0550   89.1769    9.9977 C.ar    1  UNL1       -0.0027
     27 C          63.0847   89.7050   10.9521 C.ar    1  UNL1        0.0189
     28 C          62.7099   89.9935   12.3756 C.ar    1  UNL1        0.0842
     29 C          61.3055   89.7539   12.8447 C.ar    1  UNL1        0.0189
     30 C          60.2758   89.2258   11.8903 C.ar    1  UNL1       -0.0027
     31 C          66.4746   92.9921   14.5473 C.3     1  UNL1        0.0372
     32 C          66.3548   93.3913   13.1064 C.3     1  UNL1        0.0060
     33 C          66.5944   92.5929   15.9882 C.3     1  UNL1        0.0060
     34 C          67.4791   94.0843   14.7664 C.3     1  UNL1        0.0060
@<TRIPOS>BOND
     1    24    25    1
     2    25    26   ar
     3    26    27   ar
     4    27    28   ar
     5    28    19    1
     6    19    20   ar
     7    20    21   ar
     8    21    31    1
     9    31    32    1
    10    31    33    1
    11    31    34    1
    12    21    22   ar
    13    22    23   ar
    14    23     1    1
    15     1     2   am
    16     2     3    2
    17     2     4   am
    18     4     7    1
    19     7     8   ar
    20     8     9   ar
    21     9    10   ar
    22    10    13    1
    23    13    14   ar
    24    14    15   ar
    25    15    16   ar
    26    16    17   ar
    27    17    18   ar
    28    10    11   ar
    29    11    12   ar
    30    28    29   ar
    31    29    30   ar
    32    30    25   ar
    33    23    19   ar
    34    12     7   ar
    35    18    13   ar
    36     1     5    1
    37     4     6    1
@<TRIPOS>MOLECULE
*****
 34 37 0 0 0
SMALL
GASTEIGER

@<TRIPOS>ATOM
      1 N          64.5425   90.7728   13.9299 N.am    1  UNL1       -0.2533
      2 C          64.2237   89.3204   13.7332 C.2     1  UNL1        0.3092
      3 O          64.1064   88.7593   12.3470 O.2     1  UNL1       -0.2521
      4 N          64.0222   88.4289   14.9226 N.am    1  UNL1       -0.2680
      5 H          64.6195   91.1410   14.8397 H       1  UNL1        0.1578
      6 H          64.0992   88.7971   15.8324 H       1  UNL1        0.1564
      7 C          63.7034   86.9765   14.7258 C.ar    1  UNL1        0.0516
      8 C          63.4518   86.0962   15.9140 C.ar    1  UNL1        0.0147
      9 C          63.1330   84.6437   15.7172 C.ar    1  UNL1        0.0013
     10 C          63.0658   84.0715   14.3323 C.ar    1  UNL1        0.0002
     11 C          63.3174   84.9518   13.1441 C.ar    1  UNL1        0.0013
     12 C          63.6362   86.4043   13.3409 C.ar    1  UNL1        0.0147
     13 C          62.7470   82.6190   14.1355 C.ar    1  UNL1        0.0031
     14 C          63.8248   81.6651   13.7131 C.ar    1  UNL1        0.0207
     15 C          63.5060   80.2127   13.5163 C.ar    1  UNL1        0.0989
     16 N          62.1094   79.7142   13.7419 N.ar    1  UNL1       -0.2423
     17 C          61.0316   80.6681   14.1644 C.ar    1  UNL1        0.0989
     18 C          61.3504   82.1205   14.3612 C.ar    1  UNL1        0.0207
     19 N          63.9413   91.6391   11.4737 N.ar    1  UNL1       -0.2162
     20 N          64.4848   92.6967   10.5594 N.ar    1  UNL1       -0.1683
     21 C          65.6236   93.3755   11.2612 C.ar    1  UNL1        0.0810
     22 C          65.7838   92.7375   12.6092 C.ar    1  UNL1        0.0509
     23 C          64.7441   91.6643   12.7405 C.ar    1  UNL1        0.1380
     24 C          59.3601   87.9548   10.2742 C.3     1  UNL1        0.0310
     25 C          60.5054   88.8759   10.5741 C.ar    1  UNL1       -0.0218
     26 C          61.7165   88.8794    9.6892 C.ar    1  UNL1       -0.0027
     27 C          62.8618   89.8005    9.9890 C.ar    1  UNL1        0.0189
     28 C          62.7960   90.7180   11.1738 C.ar    1  UNL1        0.0842
     29 C          61.5848   90.7144   12.0587 C.ar    1  UNL1        0.0189
     30 C          60.4396   89.7934   11.7589 C.ar    1  UNL1       -0.0027
     31 C          66.4560   94.4958   10.7114 C.3     1  UNL1        0.0372
     32 C          66.1197   95.3335   11.9093 C.3     1  UNL1        0.0060
     33 C          66.7922   93.6580    9.5135 C.3     1  UNL1        0.0060
     34 C          67.2883   95.6160   10.1616 C.3     1  UNL1        0.0060
@<TRIPOS>BOND
     1    24    25    1
     2    25    26   ar
     3    26    27   ar
     4    27    28   ar
     5    28    19    1
     6    19    20   ar
     7    20    21   ar
     8    21    31    1
     9    31    32    1
    10    31    33    1
    11    31    34    1
    12    21    22   ar
    13    22    23   ar
    14    23     1    1
    15     1     2   am
    16     2     3    2
    17     2     4   am
    18     4     7    1
    19     7     8   ar
    20     8     9   ar
    21     9    10   ar
    22    10    13    1
    23    13    14   ar
    24    14    15   ar
    25    15    16   ar
    26    16    17   ar
    27    17    18   ar
    28    10    11   ar
    29    11    12   ar
    30    28    29   ar
    31    29    30   ar
    32    30    25   ar
    33    23    19   ar
    34    12     7   ar
    35    18    13   ar
    36     1     5    1
    37     4     6    1
@<TRIPOS>MOLECULE
*****
 34 37 0 0 0
SMALL
GASTEIGER

@<TRIPOS>ATOM
      1 N          63.7723   88.8307   14.3521 N.am    1  UNL1       -0.2533
      2 C          63.6545   87.4937   13.6825 C.2     1  UNL1        0.3092
      3 O          63.8325   87.3804   12.1973 O.2     1  UNL1       -0.2521
      4 N          63.3585   86.2699   14.4978 N.am    1  UNL1       -0.2680
      5 H          63.6555   88.9050   15.3268 H       1  UNL1        0.1578
      6 H          63.2416   86.3442   15.4725 H       1  UNL1        0.1564
      7 C          63.2407   84.9329   13.8281 C.ar    1  UNL1        0.0516
      8 C          63.5194   83.6790   14.6026 C.ar    1  UNL1        0.0147
      9 C          63.4015   82.3420   13.9329 C.ar    1  UNL1        0.0013
     10 C          63.0049   82.2589   12.4887 C.ar    1  UNL1        0.0002
     11 C          62.7262   83.5129   11.7142 C.ar    1  UNL1        0.0013
     12 C          62.8441   84.8499   12.3839 C.ar    1  UNL1        0.0147
     13 C          62.8871   80.9219   11.8189 C.ar    1  UNL1        0.0031
     14 C          63.0707   80.8078   10.3346 C.ar    1  UNL1        0.0207
     15 C          62.9528   79.4708    9.6649 C.ar    1  UNL1        0.0989
     16 N          62.6513   78.2479   10.4795 N.ar    1  UNL1       -0.2423
     17 C          62.4677   78.3620   11.9638 C.ar    1  UNL1        0.0989
     18 C          62.5856   79.6990   12.6335 C.ar    1  UNL1        0.0207
     19 N          63.4103   90.4321   12.2428 N.ar    1  UNL1       -0.2162
     20 N          64.0095   91.7265   11.7786 N.ar    1  UNL1       -0.1683
     21 C          65.0378   92.1488   12.7857 C.ar    1  UNL1        0.0810
     22 C          65.0741   91.1154   13.8723 C.ar    1  UNL1        0.0509
     23 C          64.0683   90.0545   13.5368 C.ar    1  UNL1        0.1380
     24 C          59.1326   87.3130    9.4193 C.3     1  UNL1        0.0310
     25 C          60.2020   88.0928   10.1251 C.ar    1  UNL1       -0.0218
     26 C          61.5545   88.2501    9.4959 C.ar    1  UNL1       -0.0027
     27 C          62.6240   89.0299   10.2018 C.ar    1  UNL1        0.0189
     28 C          62.3409   89.6523   11.5369 C.ar    1  UNL1        0.0842
     29 C          60.9884   89.4950   12.1661 C.ar    1  UNL1        0.0189
     30 C          59.9190   88.7152   11.4602 C.ar    1  UNL1       -0.0027
     31 C          65.8817   93.3871   12.7180 C.3     1  UNL1        0.0372
     32 C          65.5243   93.5515   11.2705 C.3     1  UNL1        0.0060
     33 C          66.2390   93.2227   14.1655 C.3     1  UNL1        0.0060
     34 C          66.7255   94.6254   12.6504 C.3     1  UNL1        0.0060
@<TRIPOS>BOND
     1    24    25    1
     2    25    26   ar
     3    26    27   ar
     4    27    28   ar
     5    28    19    1
     6    19    20   ar
     7    20    21   ar
     8    21    31    1
     9    31    32    1
    10    31    33    1
    11    31    34    1
    12    21    22   ar
    13    22    23   ar
    14    23     1    1
    15     1     2   am
    16     2     3    2
    17     2     4   am
    18     4     7    1
    19     7     8   ar
    20     8     9   ar
    21     9    10   ar
    22    10    13    1
    23    13    14   ar
    24    14    15   ar
    25    15    16   ar
    26    16    17   ar
    27    17    18   ar
    28    10    11   ar
    29    11    12   ar
    30    28    29   ar
    31    29    30   ar
    32    30    25   ar
    33    23    19   ar
    34    12     7   ar
    35    18    13   ar
    36     1     5    1
    37     4     6    1
@<TRIPOS>MOLECULE
*****
 34 37 0 0 0
SMALL
GASTEIGER

@<TRIPOS>ATOM
      1 N          64.0825   92.7713   12.0400 N.am    1  UNL1       -0.2533
      2 C          64.0940   91.2759   11.9250 C.2     1  UNL1        0.3092
      3 O          65.1743   90.5922   11.1403 O.2     1  UNL1       -0.2521
      4 N          63.0252   90.4638   12.5946 N.am    1  UNL1       -0.2680
      5 H          63.3735   93.2200   12.5550 H       1  UNL1        0.1578
      6 H          62.3162   90.9124   13.1096 H       1  UNL1        0.1564
      7 C          63.0368   88.9683   12.4795 C.ar    1  UNL1        0.0516
      8 C          63.7695   88.1435   13.4958 C.ar    1  UNL1        0.0147
      9 C          63.7811   86.6480   13.3807 C.ar    1  UNL1        0.0013
     10 C          63.0599   85.9772   12.2494 C.ar    1  UNL1        0.0002
     11 C          62.3272   86.8020   11.2331 C.ar    1  UNL1        0.0013
     12 C          62.3156   88.2975   11.3482 C.ar    1  UNL1        0.0147
     13 C          63.0715   84.4817   12.1344 C.ar    1  UNL1        0.0031
     14 C          62.6684   83.6361   13.3060 C.ar    1  UNL1        0.0207
     15 C          62.6799   82.1406   13.1909 C.ar    1  UNL1        0.0989
     16 N          63.0946   81.4906   11.9042 N.ar    1  UNL1       -0.2423
     17 C          63.4977   82.3361   10.7326 C.ar    1  UNL1        0.0989
     18 C          63.4862   83.8316   10.8477 C.ar    1  UNL1        0.0207
     19 N          66.5396   93.8130   11.8897 N.ar    1  UNL1       -0.2162
     20 N          67.2656   94.6799   10.9041 N.ar    1  UNL1       -0.1683
     21 C          66.3260   94.9860    9.7757 C.ar    1  UNL1        0.0810
     22 C          65.0192   94.3084   10.0639 C.ar    1  UNL1        0.0509
     23 C          65.1512   93.5834   11.3704 C.ar    1  UNL1        0.1380
     24 C          68.7933   91.6445   17.0101 C.3     1  UNL1        0.0310
     25 C          68.2299   92.1866   15.7300 C.ar    1  UNL1       -0.0218
     26 C          68.6766   91.6205   14.4147 C.ar    1  UNL1       -0.0027
     27 C          68.1132   92.1626   13.1346 C.ar    1  UNL1        0.0189
     28 C          67.1030   93.2708   13.1698 C.ar    1  UNL1        0.0842
     29 C          66.6563   93.8369   14.4850 C.ar    1  UNL1        0.0189
     30 C          67.2197   93.2948   15.7651 C.ar    1  UNL1       -0.0027
     31 C          66.6383   95.8230    8.5707 C.3     1  UNL1        0.0372
     32 C          67.6227   94.7899    8.1083 C.3     1  UNL1        0.0060
     33 C          65.6539   96.8560    9.0330 C.3     1  UNL1        0.0060
     34 C          66.9506   96.6599    7.3657 C.3     1  UNL1        0.0060
@<TRIPOS>BOND
     1    24    25    1
     2    25    26   ar
     3    26    27   ar
     4    27    28   ar
     5    28    19    1
     6    19    20   ar
     7    20    21   ar
     8    21    31    1
     9    31    32    1
    10    31    33    1
    11    31    34    1
    12    21    22   ar
    13    22    23   ar
    14    23     1    1
    15     1     2   am
    16     2     3    2
    17     2     4   am
    18     4     7    1
    19     7     8   ar
    20     8     9   ar
    21     9    10   ar
    22    10    13    1
    23    13    14   ar
    24    14    15   ar
    25    15    16   ar
    26    16    17   ar
    27    17    18   ar
    28    10    11   ar
    29    11    12   ar
    30    28    29   ar
    31    29    30   ar
    32    30    25   ar
    33    23    19   ar
    34    12     7   ar
    35    18    13   ar
    36     1     5    1
    37     4     6    1
@<TRIPOS>MOLECULE
*****
 34 37 0 0 0
SMALL
GASTEIGER

@<TRIPOS>ATOM
      1 N          61.6231   87.8689   12.1923 N.am    1  UNL1       -0.2533
      2 C          62.8261   88.5926   12.7204 C.2     1  UNL1        0.3092
      3 O          64.1796   87.9498   12.6485 O.2     1  UNL1       -0.2521
      4 N          62.6758   89.9591   13.3205 N.am    1  UNL1       -0.2680
      5 H          60.7349   88.2908   12.2396 H       1  UNL1        0.1578
      6 H          61.7876   90.3810   13.3677 H       1  UNL1        0.1564
      7 C          63.8789   90.6828   13.8486 C.ar    1  UNL1        0.0516
      8 C          64.9120   91.2129   12.8990 C.ar    1  UNL1        0.0147
      9 C          66.1151   91.9366   13.4271 C.ar    1  UNL1        0.0013
     10 C          66.2851   92.1302   14.9047 C.ar    1  UNL1        0.0002
     11 C          65.2520   91.6001   15.8543 C.ar    1  UNL1        0.0013
     12 C          64.0490   90.8764   15.3263 C.ar    1  UNL1        0.0147
     13 C          67.4882   92.8539   15.4328 C.ar    1  UNL1        0.0031
     14 C          67.6311   94.3309   15.2136 C.ar    1  UNL1        0.0207
     15 C          68.8342   95.0545   15.7417 C.ar    1  UNL1        0.0989
     16 N          69.8943   94.3012   16.4890 N.ar    1  UNL1       -0.2423
     17 C          69.7514   92.8242   16.7083 C.ar    1  UNL1        0.0989
     18 C          68.5484   92.1005   16.1802 C.ar    1  UNL1        0.0207
     19 N          61.3385   86.0907   10.2170 N.ar    1  UNL1       -0.2162
     20 N          61.6813   84.6415   10.0369 N.ar    1  UNL1       -0.1683
     21 C          62.3281   84.1576   11.3008 C.ar    1  UNL1        0.0810
     22 C          62.3850   85.3077   12.2621 C.ar    1  UNL1        0.0509
     23 C          61.7734   86.5024   11.5922 C.ar    1  UNL1        0.1380
     24 C          58.6921   89.6206    6.1505 C.3     1  UNL1        0.0310
     25 C          59.3537   88.7381    7.1671 C.ar    1  UNL1       -0.0218
     26 C          59.1772   87.2502    7.0970 C.ar    1  UNL1       -0.0027
     27 C          59.8388   86.3677    8.1136 C.ar    1  UNL1        0.0189
     28 C          60.6769   86.9732    9.2004 C.ar    1  UNL1        0.0842
     29 C          60.8534   88.4611    9.2704 C.ar    1  UNL1        0.0189
     30 C          60.1918   89.3435    8.2538 C.ar    1  UNL1       -0.0027
     31 C          62.8299   82.7677   11.5582 C.3     1  UNL1        0.0372
     32 C          62.2252   82.8036   12.9305 C.3     1  UNL1        0.0060
     33 C          63.4345   82.7318   10.1860 C.3     1  UNL1        0.0060
     34 C          63.3316   81.3778   11.8157 C.3     1  UNL1        0.0060
@<TRIPOS>BOND
     1    24    25    1
     2    25    26   ar
     3    26    27   ar
     4    27    28   ar
     5    28    19    1
     6    19    20   ar
     7    20    21   ar
     8    21    31    1
     9    31    32    1
    10    31    33    1
    11    31    34    1
    12    21    22   ar
    13    22    23   ar
    14    23     1    1
    15     1     2   am
    16     2     3    2
    17     2     4   am
    18     4     7    1
    19     7     8   ar
    20     8     9   ar
    21     9    10   ar
    22    10    13    1
    23    13    14   ar
    24    14    15   ar
    25    15    16   ar
    26    16    17   ar
    27    17    18   ar
    28    10    11   ar
    29    11    12   ar
    30    28    29   ar
    31    29    30   ar
    32    30    25   ar
    33    23    19   ar
    34    12     7   ar
    35    18    13   ar
    36     1     5    1
    37     4     6    1
