@<TRIPOS>MOLECULE
*****
 29 31 0 0 0
SMALL
GASTEIGER

@<TRIPOS>ATOM
      1 N          63.3261   90.0669   12.3557 N.pl3   1  UNL1       -0.2872
      2 N          65.9240   93.6174   11.4100 N.3     1  UNL1       -0.2706
      3 C          65.9025   93.0526   12.7994 C.3     1  UNL1        0.0739
      4 C          65.0366   91.8691   13.1146 C.3     1  UNL1        0.0374
      5 C          64.1921   91.2504   12.0405 C.3     1  UNL1        0.0800
      6 C          64.2135   91.8152   10.6510 C.3     1  UNL1        0.0374
      7 C          65.0795   92.9987   10.3358 C.3     1  UNL1        0.0739
      8 C          66.7900   94.8010   11.0948 C.3     1  UNL1        0.0993
      9 C          67.7099   94.7557    9.1839 C.3     1  UNL1        0.0307
     10 C          66.5997   95.5480    9.8081 C.3     1  UNL1        0.1031
     11 C          65.4895   96.3403   10.4323 C.3     1  UNL1        0.0307
     12 O          66.4094   96.2951    8.5213 O.3     1  UNL1       -0.3854
     13 H          65.6915   96.9392    8.6245 H       1  UNL1        0.2103
     14 C          62.3937   89.5214   11.3151 C.ar    1  UNL1        0.0515
     15 C          61.1487   90.2762   10.9539 C.ar    1  UNL1        0.0148
     16 C          60.2162   89.7307    9.9132 C.ar    1  UNL1        0.0051
     17 C          60.5287   88.4305    9.2337 C.ar    1  UNL1        0.0715
     18 C          61.7736   87.6757    9.5949 C.ar    1  UNL1        0.0051
     19 C          62.7061   88.2211   10.6356 C.ar    1  UNL1        0.0148
     20 C          59.5961   87.8850    8.1931 C.3     1  UNL1        0.4186
     21 F          58.6636   87.3396    7.1525 F       1  UNL1       -0.1659
     22 F          59.5099   89.2418    7.5592 F       1  UNL1       -0.1659
     23 F          59.6824   86.5283    8.8269 F       1  UNL1       -0.1659
     24 C          63.3926   89.4288   13.7115 C.ar    1  UNL1        0.0710
     25 C          64.1135   88.1259   13.8928 C.ar    1  UNL1        0.0180
     26 C          64.1800   87.4879   15.2487 C.ar    1  UNL1        0.0220
     27 C          63.5256   88.1526   16.4233 C.ar    1  UNL1        0.0990
     28 N          62.8046   89.4555   16.2421 N.ar    1  UNL1       -0.2410
     29 C          62.7382   90.0936   14.8862 C.ar    1  UNL1        0.1136
@<TRIPOS>BOND
     1     9    10    1
     2    10    11    1
     3    10    12    1
     4    10     8    1
     5     8     2    1
     6     2     3    1
     7     3     4    1
     8     4     5    1
     9     5     1    1
    10     1    14    1
    11    14    15   ar
    12    15    16   ar
    13    16    17   ar
    14    17    20    1
    15    20    21    1
    16    20    22    1
    17    20    23    1
    18    17    18   ar
    19    18    19   ar
    20     1    24    1
    21    24    25   ar
    22    25    26   ar
    23    26    27   ar
    24    27    28   ar
    25    28    29   ar
    26     5     6    1
    27     6     7    1
    28     7     2    1
    29    19    14   ar
    30    29    24   ar
    31    12    13    1
@<TRIPOS>MOLECULE
*****
 29 31 0 0 0
SMALL
GASTEIGER

@<TRIPOS>ATOM
      1 N          62.0588   86.7829   10.8356 N.pl3   1  UNL1       -0.2872
      2 N          63.8128   90.6750   12.2586 N.3     1  UNL1       -0.2706
      3 C          63.8992   89.4526   13.1236 C.3     1  UNL1        0.0739
      4 C          63.3145   88.1553   12.6493 C.3     1  UNL1        0.0374
      5 C          62.6434   88.0803   11.3099 C.3     1  UNL1        0.0800
      6 C          62.5571   89.3026   10.4449 C.3     1  UNL1        0.0374
      7 C          63.1418   90.6000   10.9192 C.3     1  UNL1        0.0739
      8 C          64.3975   91.9723   12.7330 C.3     1  UNL1        0.0993
      9 C          66.2015   91.7700   13.8305 C.3     1  UNL1        0.0307
     10 C          65.8404   92.2857   12.4690 C.3     1  UNL1        0.1031
     11 C          65.4794   92.8013   11.1075 C.3     1  UNL1        0.0307
     12 O          67.2835   92.5991   12.2050 O.3     1  UNL1       -0.3854
     13 H          67.3744   92.9810   11.3181 H       1  UNL1        0.2103
     14 C          62.4721   85.4935   11.4810 C.ar    1  UNL1        0.0515
     15 C          62.2180   85.2711   12.9425 C.ar    1  UNL1        0.0148
     16 C          62.6313   83.9817   13.5879 C.ar    1  UNL1        0.0051
     17 C          63.2987   82.9147   12.7718 C.ar    1  UNL1        0.0715
     18 C          63.5528   83.1370   11.3103 C.ar    1  UNL1        0.0051
     19 C          63.1395   84.4265   10.6649 C.ar    1  UNL1        0.0148
     20 C          63.7120   81.6252   13.4173 C.3     1  UNL1        0.4186
     21 F          64.1253   80.3358   14.0627 F       1  UNL1       -0.1659
     22 F          64.1553   82.3777   14.6368 F       1  UNL1       -0.1659
     23 F          63.2688   80.8727   12.1978 F       1  UNL1       -0.1659
     24 C          61.0607   86.7750    9.7158 C.ar    1  UNL1        0.0710
     25 C          61.3357   85.9834    8.4717 C.ar    1  UNL1        0.0180
     26 C          60.3376   85.9755    7.3519 C.ar    1  UNL1        0.0220
     27 C          59.0646   86.7591    7.4763 C.ar    1  UNL1        0.0990
     28 N          58.7897   87.5506    8.7205 N.ar    1  UNL1       -0.2410
     29 C          59.7877   87.5586    9.8402 C.ar    1  UNL1        0.1136
@<TRIPOS>BOND
     1     9    10    1
     2    10    11    1
     3    10    12    1
     4    10     8    1
     5     8     2    1
     6     2     3    1
     7     3     4    1
     8     4     5    1
     9     5     1    1
    10     1    14    1
    11    14    15   ar
    12    15    16   ar
    13    16    17   ar
    14    17    20    1
    15    20    21    1
    16    20    22    1
    17    20    23    1
    18    17    18   ar
    19    18    19   ar
    20     1    24    1
    21    24    25   ar
    22    25    26   ar
    23    26    27   ar
    24    27    28   ar
    25    28    29   ar
    26     5     6    1
    27     6     7    1
    28     7     2    1
    29    19    14   ar
    30    29    24   ar
    31    12    13    1
@<TRIPOS>MOLECULE
*****
 29 31 0 0 0
SMALL
GASTEIGER

@<TRIPOS>ATOM
      1 N          63.2872   89.0968   12.6733 N.pl3   1  UNL1       -0.2872
      2 N          63.9938   84.8216   13.8870 N.3     1  UNL1       -0.2706
      3 C          63.1993   85.1293   12.6525 C.3     1  UNL1        0.0739
      4 C          62.9638   86.5543   12.2479 C.3     1  UNL1        0.0374
      5 C          63.5227   87.6718   13.0779 C.3     1  UNL1        0.0800
      6 C          64.3172   87.3642   14.3124 C.3     1  UNL1        0.0374
      7 C          64.5527   85.9391   14.7170 C.3     1  UNL1        0.0739
      8 C          64.2293   83.3966   14.2916 C.3     1  UNL1        0.0993
      9 C          63.6355   81.5168   13.5082 C.3     1  UNL1        0.0307
     10 C          63.0649   82.4766   14.5098 C.3     1  UNL1        0.1031
     11 C          62.4942   83.4364   15.5113 C.3     1  UNL1        0.0307
     12 O          61.9004   81.5565   14.7279 O.3     1  UNL1       -0.3854
     13 H          61.3014   81.9434   15.3855 H       1  UNL1        0.2103
     14 C          64.1861   90.1813   13.1890 C.ar    1  UNL1        0.0515
     15 C          64.5799   91.3182   12.2932 C.ar    1  UNL1        0.0148
     16 C          65.4788   92.4026   12.8089 C.ar    1  UNL1        0.0051
     17 C          65.9839   92.3502   14.2203 C.ar    1  UNL1        0.0715
     18 C          65.5901   91.2133   15.1161 C.ar    1  UNL1        0.0051
     19 C          64.6911   90.1288   14.6004 C.ar    1  UNL1        0.0148
     20 C          66.8828   93.4347   14.7360 C.3     1  UNL1        0.4186
     21 F          67.7817   94.5191   15.2517 F       1  UNL1       -0.1659
     22 F          66.4376   94.3339   13.6211 F       1  UNL1       -0.1659
     23 F          67.3281   92.5354   15.8509 F       1  UNL1       -0.1659
     24 C          62.1527   89.4375   11.7530 C.ar    1  UNL1        0.0710
     25 C          62.3286   89.3151   10.2684 C.ar    1  UNL1        0.0180
     26 C          61.1941   89.6558    9.3481 C.ar    1  UNL1        0.0220
     27 C          59.8838   90.1188    9.9124 C.ar    1  UNL1        0.0990
     28 N          59.7078   90.2412   11.3970 N.ar    1  UNL1       -0.2410
     29 C          60.8423   89.9006   12.3173 C.ar    1  UNL1        0.1136
@<TRIPOS>BOND
     1     9    10    1
     2    10    11    1
     3    10    12    1
     4    10     8    1
     5     8     2    1
     6     2     3    1
     7     3     4    1
     8     4     5    1
     9     5     1    1
    10     1    14    1
    11    14    15   ar
    12    15    16   ar
    13    16    17   ar
    14    17    20    1
    15    20    21    1
    16    20    22    1
    17    20    23    1
    18    17    18   ar
    19    18    19   ar
    20     1    24    1
    21    24    25   ar
    22    25    26   ar
    23    26    27   ar
    24    27    28   ar
    25    28    29   ar
    26     5     6    1
    27     6     7    1
    28     7     2    1
    29    19    14   ar
    30    29    24   ar
    31    12    13    1
@<TRIPOS>MOLECULE
*****
 29 31 0 0 0
SMALL
GASTEIGER

@<TRIPOS>ATOM
      1 N          62.7885   87.9839   11.9932 N.pl3   1  UNL1       -0.2872
      2 N          65.1058   91.3058   13.9541 N.3     1  UNL1       -0.2706
      3 C          64.9752   89.9772   14.6380 C.3     1  UNL1        0.0739
      4 C          64.2028   88.8699   13.9843 C.3     1  UNL1        0.0374
      5 C          63.5609   89.0912   12.6468 C.3     1  UNL1        0.0800
      6 C          63.6916   90.4198   11.9629 C.3     1  UNL1        0.0374
      7 C          64.4640   91.5271   12.6165 C.3     1  UNL1        0.0739
      8 C          65.8783   92.4131   14.6077 C.3     1  UNL1        0.0993
      9 C          67.3648   92.5678   16.1130 C.3     1  UNL1        0.0307
     10 C          67.3776   92.3724   14.6259 C.3     1  UNL1        0.1031
     11 C          67.3904   92.1770   13.1388 C.3     1  UNL1        0.0307
     12 O          68.8770   92.3317   14.6442 O.3     1  UNL1       -0.3854
     13 H          69.2080   92.2038   13.7414 H       1  UNL1        0.2103
     14 C          63.0253   86.5606   12.4033 C.ar    1  UNL1        0.0515
     15 C          62.4501   85.4398   11.5889 C.ar    1  UNL1        0.0148
     16 C          62.6869   84.0166   11.9990 C.ar    1  UNL1        0.0051
     17 C          63.4989   83.7140   13.2235 C.ar    1  UNL1        0.0715
     18 C          64.0740   84.8347   14.0378 C.ar    1  UNL1        0.0051
     19 C          63.8373   86.2581   13.6277 C.ar    1  UNL1        0.0148
     20 C          63.7356   82.2907   13.6335 C.3     1  UNL1        0.4186
     21 F          63.9724   80.8674   14.0436 F       1  UNL1       -0.1659
     22 F          64.7355   82.1378   12.5259 F       1  UNL1       -0.1659
     23 F          62.7358   82.4435   14.7411 F       1  UNL1       -0.1659
     24 C          61.7793   88.2999   10.9295 C.ar    1  UNL1        0.0710
     25 C          61.7851   87.5350    9.6391 C.ar    1  UNL1        0.0180
     26 C          60.7758   87.8510    8.5754 C.ar    1  UNL1        0.0220
     27 C          59.7607   88.9318    8.8020 C.ar    1  UNL1        0.0990
     28 N          59.7549   89.6967   10.0923 N.ar    1  UNL1       -0.2410
     29 C          60.7641   89.3807   11.1560 C.ar    1  UNL1        0.1136
@<TRIPOS>BOND
     1     9    10    1
     2    10    11    1
     3    10    12    1
     4    10     8    1
     5     8     2    1
     6     2     3    1
     7     3     4    1
     8     4     5    1
     9     5     1    1
    10     1    14    1
    11    14    15   ar
    12    15    16   ar
    13    16    17   ar
    14    17    20    1
    15    20    21    1
    16    20    22    1
    17    20    23    1
    18    17    18   ar
    19    18    19   ar
    20     1    24    1
    21    24    25   ar
    22    25    26   ar
    23    26    27   ar
    24    27    28   ar
    25    28    29   ar
    26     5     6    1
    27     6     7    1
    28     7     2    1
    29    19    14   ar
    30    29    24   ar
    31    12    13    1
@<TRIPOS>MOLECULE
*****
 29 31 0 0 0
SMALL
GASTEIGER

@<TRIPOS>ATOM
      1 N          62.9030   88.3048   12.2368 N.pl3   1  UNL1       -0.2872
      2 N          63.4690   83.9089   13.0150 N.3     1  UNL1       -0.2706
      3 C          64.1422   84.9192   13.8958 C.3     1  UNL1        0.0739
      4 C          63.9536   86.3845   13.6364 C.3     1  UNL1        0.0374
      5 C          63.0917   86.8395   12.4962 C.3     1  UNL1        0.0800
      6 C          62.4184   85.8291   11.6154 C.3     1  UNL1        0.0374
      7 C          62.6070   84.3638   11.8748 C.3     1  UNL1        0.0739
      8 C          63.6576   82.4435   13.2744 C.3     1  UNL1        0.0993
      9 C          62.8324   80.6984   12.3950 C.3     1  UNL1        0.0307
     10 C          62.4695   81.5731   13.5582 C.3     1  UNL1        0.1031
     11 C          62.1066   82.4477   14.7215 C.3     1  UNL1        0.0307
     12 O          61.2813   80.7025   13.8421 O.3     1  UNL1       -0.3854
     13 H          60.8039   81.0481   14.6125 H       1  UNL1        0.2103
     14 C          63.7270   89.3109   12.9842 C.ar    1  UNL1        0.0515
     15 C          64.1909   89.0129   14.3792 C.ar    1  UNL1        0.0148
     16 C          65.0150   90.0190   15.1266 C.ar    1  UNL1        0.0051
     17 C          65.3751   91.3233   14.4790 C.ar    1  UNL1        0.0715
     18 C          64.9112   91.6213   13.0841 C.ar    1  UNL1        0.0051
     19 C          64.0871   90.6151   12.3366 C.ar    1  UNL1        0.0148
     20 C          66.1991   92.3294   15.2265 C.3     1  UNL1        0.4186
     21 F          67.0232   93.3355   15.9739 F       1  UNL1       -0.1659
     22 F          65.1410   92.4085   16.2867 F       1  UNL1       -0.1659
     23 F          67.2572   92.2504   14.1663 F       1  UNL1       -0.1659
     24 C          61.8904   88.7639   11.2300 C.ar    1  UNL1        0.0710
     25 C          60.8685   89.7941   11.6102 C.ar    1  UNL1        0.0180
     26 C          59.8558   90.2533   10.6034 C.ar    1  UNL1        0.0220
     27 C          59.8650   89.6822    9.2164 C.ar    1  UNL1        0.0990
     28 N          60.8869   88.6521    8.8362 N.ar    1  UNL1       -0.2410
     29 C          61.8995   88.1929    9.8429 C.ar    1  UNL1        0.1136
@<TRIPOS>BOND
     1     9    10    1
     2    10    11    1
     3    10    12    1
     4    10     8    1
     5     8     2    1
     6     2     3    1
     7     3     4    1
     8     4     5    1
     9     5     1    1
    10     1    14    1
    11    14    15   ar
    12    15    16   ar
    13    16    17   ar
    14    17    20    1
    15    20    21    1
    16    20    22    1
    17    20    23    1
    18    17    18   ar
    19    18    19   ar
    20     1    24    1
    21    24    25   ar
    22    25    26   ar
    23    26    27   ar
    24    27    28   ar
    25    28    29   ar
    26     5     6    1
    27     6     7    1
    28     7     2    1
    29    19    14   ar
    30    29    24   ar
    31    12    13    1
@<TRIPOS>MOLECULE
*****
 29 31 0 0 0
SMALL
GASTEIGER

@<TRIPOS>ATOM
      1 N          62.0227   87.2805   10.4593 N.pl3   1  UNL1       -0.2872
      2 N          63.0969   82.9896   11.2864 N.3     1  UNL1       -0.2706
      3 C          62.3468   83.7862   12.3125 C.3     1  UNL1        0.0739
      4 C          61.9888   85.2165   12.0368 C.3     1  UNL1        0.0374
      5 C          62.3808   85.8502   10.7350 C.3     1  UNL1        0.0800
      6 C          63.1308   85.0536    9.7089 C.3     1  UNL1        0.0374
      7 C          63.4888   83.6233    9.9846 C.3     1  UNL1        0.0739
      8 C          63.4549   81.5593   11.5621 C.3     1  UNL1        0.0993
      9 C          62.4282   80.1359   12.7537 C.3     1  UNL1        0.0307
     10 C          63.5758   81.0757   12.9769 C.3     1  UNL1        0.1031
     11 C          64.7233   82.0155   13.2000 C.3     1  UNL1        0.0307
     12 O          63.6966   80.5921   14.3917 O.3     1  UNL1       -0.3854
     13 H          64.4223   81.0608   14.8327 H       1  UNL1        0.2103
     14 C          62.7006   88.3829   11.2176 C.ar    1  UNL1        0.0515
     15 C          62.8007   89.7543   10.6181 C.ar    1  UNL1        0.0148
     16 C          63.4785   90.8568   11.3765 C.ar    1  UNL1        0.0051
     17 C          64.0563   90.5879   12.7344 C.ar    1  UNL1        0.0715
     18 C          63.9562   89.2166   13.3339 C.ar    1  UNL1        0.0051
     19 C          63.2784   88.1141   12.5755 C.ar    1  UNL1        0.0148
     20 C          64.7342   91.6904   13.4928 C.3     1  UNL1        0.4186
     21 F          65.4120   92.7928   14.2511 F       1  UNL1       -0.1659
     22 F          65.5036   92.0648   12.2608 F       1  UNL1       -0.1659
     23 F          63.9647   91.3160   14.7247 F       1  UNL1       -0.1659
     24 C          60.9869   87.6084    9.4252 C.ar    1  UNL1        0.0710
     25 C          60.1988   86.5084    8.7778 C.ar    1  UNL1        0.0180
     26 C          59.1629   86.8364    7.7437 C.ar    1  UNL1        0.0220
     27 C          58.9151   88.2643    7.3569 C.ar    1  UNL1        0.0990
     28 N          59.7031   89.3643    8.0043 N.ar    1  UNL1       -0.2410
     29 C          60.7390   89.0364    9.0384 C.ar    1  UNL1        0.1136
@<TRIPOS>BOND
     1     9    10    1
     2    10    11    1
     3    10    12    1
     4    10     8    1
     5     8     2    1
     6     2     3    1
     7     3     4    1
     8     4     5    1
     9     5     1    1
    10     1    14    1
    11    14    15   ar
    12    15    16   ar
    13    16    17   ar
    14    17    20    1
    15    20    21    1
    16    20    22    1
    17    20    23    1
    18    17    18   ar
    19    18    19   ar
    20     1    24    1
    21    24    25   ar
    22    25    26   ar
    23    26    27   ar
    24    27    28   ar
    25    28    29   ar
    26     5     6    1
    27     6     7    1
    28     7     2    1
    29    19    14   ar
    30    29    24   ar
    31    12    13    1
@<TRIPOS>MOLECULE
*****
 29 31 0 0 0
SMALL
GASTEIGER

@<TRIPOS>ATOM
      1 N          62.7223   85.6833   11.8754 N.pl3   1  UNL1       -0.2872
      2 N          63.7536   89.8388   13.2604 N.3     1  UNL1       -0.2706
      3 C          64.2252   88.6489   14.0425 C.3     1  UNL1        0.0739
      4 C          63.8815   87.2638   13.5808 C.3     1  UNL1        0.0374
      5 C          63.0661   87.0685   12.3370 C.3     1  UNL1        0.0800
      6 C          62.5945   88.2584   11.5550 C.3     1  UNL1        0.0374
      7 C          62.9382   89.6435   12.0166 C.3     1  UNL1        0.0739
      8 C          64.0973   91.2240   13.7221 C.3     1  UNL1        0.0993
      9 C          65.0372   92.1271   12.0485 C.3     1  UNL1        0.0307
     10 C          65.4592   91.7896   13.4477 C.3     1  UNL1        0.1031
     11 C          65.8812   91.4522   14.8470 C.3     1  UNL1        0.0307
     12 O          66.8211   92.3553   13.1733 O.3     1  UNL1       -0.3854
     13 H          67.3720   92.2715   13.9673 H       1  UNL1        0.2103
     14 C          62.4838   85.4158   10.4189 C.ar    1  UNL1        0.0515
     15 C          63.4885   84.6340    9.6255 C.ar    1  UNL1        0.0148
     16 C          63.2499   84.3665    8.1690 C.ar    1  UNL1        0.0051
     17 C          62.0066   84.8807    7.5058 C.ar    1  UNL1        0.0715
     18 C          61.0019   85.6624    8.2991 C.ar    1  UNL1        0.0051
     19 C          61.2405   85.9300    9.7557 C.ar    1  UNL1        0.0148
     20 C          61.7680   84.6131    6.0492 C.3     1  UNL1        0.4186
     21 F          61.5296   84.3456    4.5927 F       1  UNL1       -0.1659
     22 F          60.2877   84.6178    6.2907 F       1  UNL1       -0.1659
     23 F          63.2484   84.6085    5.8076 F       1  UNL1       -0.1659
     24 C          62.6172   84.5657   12.8702 C.ar    1  UNL1        0.0710
     25 C          62.6115   83.1412   12.4002 C.ar    1  UNL1        0.0180
     26 C          62.5063   82.0235   13.3951 C.ar    1  UNL1        0.0220
     27 C          62.4069   82.3303   14.8600 C.ar    1  UNL1        0.0990
     28 N          62.4125   83.7548   15.3300 N.ar    1  UNL1       -0.2410
     29 C          62.5177   84.8724   14.3352 C.ar    1  UNL1        0.1136
@<TRIPOS>BOND
     1     9    10    1
     2    10    11    1
     3    10    12    1
     4    10     8    1
     5     8     2    1
     6     2     3    1
     7     3     4    1
     8     4     5    1
     9     5     1    1
    10     1    14    1
    11    14    15   ar
    12    15    16   ar
    13    16    17   ar
    14    17    20    1
    15    20    21    1
    16    20    22    1
    17    20    23    1
    18    17    18   ar
    19    18    19   ar
    20     1    24    1
    21    24    25   ar
    22    25    26   ar
    23    26    27   ar
    24    27    28   ar
    25    28    29   ar
    26     5     6    1
    27     6     7    1
    28     7     2    1
    29    19    14   ar
    30    29    24   ar
    31    12    13    1
@<TRIPOS>MOLECULE
*****
 29 31 0 0 0
SMALL
GASTEIGER

@<TRIPOS>ATOM
      1 N          63.0502   87.2186   12.5270 N.pl3   1  UNL1       -0.2872
      2 N          64.8493   91.1017   13.9177 N.3     1  UNL1       -0.2706
      3 C          64.1090   91.0423   12.6145 C.3     1  UNL1        0.0739
      4 C          63.5093   89.7479   12.1509 C.3     1  UNL1        0.0374
      5 C          63.6499   88.5130   12.9906 C.3     1  UNL1        0.0800
      6 C          64.3902   88.5724   14.2938 C.3     1  UNL1        0.0374
      7 C          64.9899   89.8668   14.7574 C.3     1  UNL1        0.0739
      8 C          65.4490   92.3961   14.3813 C.3     1  UNL1        0.0993
      9 C          66.8651   92.7358   15.9237 C.3     1  UNL1        0.0307
     10 C          66.9395   92.5549   14.4365 C.3     1  UNL1        0.1031
     11 C          67.0138   92.3740   12.9494 C.3     1  UNL1        0.0307
     12 O          68.4301   92.7137   14.4918 O.3     1  UNL1       -0.3854
     13 H          68.7967   92.6377   13.5970 H       1  UNL1        0.2103
     14 C          62.1446   87.1972   11.3314 C.ar    1  UNL1        0.0515
     15 C          60.8284   87.9154   11.3745 C.ar    1  UNL1        0.0148
     16 C          59.9229   87.8941   10.1789 C.ar    1  UNL1        0.0051
     17 C          60.3335   87.1544    8.9402 C.ar    1  UNL1        0.0715
     18 C          61.6496   86.4362    8.8971 C.ar    1  UNL1        0.0051
     19 C          62.5552   86.4576   10.0927 C.ar    1  UNL1        0.0148
     20 C          59.4278   87.1331    7.7445 C.3     1  UNL1        0.4186
     21 F          58.5222   87.1118    6.5490 F       1  UNL1       -0.1659
     22 F          59.7283   85.6774    7.5429 F       1  UNL1       -0.1659
     23 F          59.1274   88.5887    7.9462 F       1  UNL1       -0.1659
     24 C          63.3560   85.9456   13.2590 C.ar    1  UNL1        0.0710
     25 C          64.3363   85.9502   14.3944 C.ar    1  UNL1        0.0180
     26 C          64.6421   84.6771   15.1264 C.ar    1  UNL1        0.0220
     27 C          63.9677   83.3995   14.7230 C.ar    1  UNL1        0.0990
     28 N          62.9875   83.3948   13.5876 N.ar    1  UNL1       -0.2410
     29 C          62.6816   84.6678   12.8556 C.ar    1  UNL1        0.1136
@<TRIPOS>BOND
     1     9    10    1
     2    10    11    1
     3    10    12    1
     4    10     8    1
     5     8     2    1
     6     2     3    1
     7     3     4    1
     8     4     5    1
     9     5     1    1
    10     1    14    1
    11    14    15   ar
    12    15    16   ar
    13    16    17   ar
    14    17    20    1
    15    20    21    1
    16    20    22    1
    17    20    23    1
    18    17    18   ar
    19    18    19   ar
    20     1    24    1
    21    24    25   ar
    22    25    26   ar
    23    26    27   ar
    24    27    28   ar
    25    28    29   ar
    26     5     6    1
    27     6     7    1
    28     7     2    1
    29    19    14   ar
    30    29    24   ar
    31    12    13    1
@<TRIPOS>MOLECULE
*****
 29 31 0 0 0
SMALL
GASTEIGER

@<TRIPOS>ATOM
      1 N          63.0535   87.1955   12.5354 N.pl3   1  UNL1       -0.2872
      2 N          64.8480   91.0789   13.9315 N.3     1  UNL1       -0.2706
      3 C          64.9965   89.8412   14.7658 C.3     1  UNL1        0.0739
      4 C          64.3983   88.5468   14.3005 C.3     1  UNL1        0.0374
      5 C          63.6517   88.4900   13.0008 C.3     1  UNL1        0.0800
      6 C          63.5032   89.7276   12.1664 C.3     1  UNL1        0.0374
      7 C          64.1014   91.0221   12.6318 C.3     1  UNL1        0.0739
      8 C          65.4462   92.3734   14.3969 C.3     1  UNL1        0.0993
      9 C          66.8930   92.7251   15.9077 C.3     1  UNL1        0.0307
     10 C          66.9360   92.5460   14.4191 C.3     1  UNL1        0.1031
     11 C          66.9790   92.3669   12.9305 C.3     1  UNL1        0.0307
     12 O          68.4259   92.7187   14.4414 O.3     1  UNL1       -0.3854
     13 H          68.7733   92.6467   13.5386 H       1  UNL1        0.2103
     14 C          62.1555   87.1732   11.3341 C.ar    1  UNL1        0.0515
     15 C          62.5679   86.4216   10.1032 C.ar    1  UNL1        0.0148
     16 C          61.6699   86.3993    8.9020 C.ar    1  UNL1        0.0051
     17 C          60.3595   87.1287    8.9315 C.ar    1  UNL1        0.0715
     18 C          59.9471   87.8803   10.1624 C.ar    1  UNL1        0.0051
     19 C          60.8451   87.9026   11.3637 C.ar    1  UNL1        0.0148
     20 C          59.4615   87.1064    7.7302 C.3     1  UNL1        0.4186
     21 F          58.5635   87.0840    6.5289 F       1  UNL1       -0.1659
     22 F          59.1456   88.5577    7.9393 F       1  UNL1       -0.1659
     23 F          59.7774   85.6550    7.5211 F       1  UNL1       -0.1659
     24 C          63.3534   85.9233   13.2713 C.ar    1  UNL1        0.0710
     25 C          62.7235   84.6354   12.8302 C.ar    1  UNL1        0.0180
     26 C          63.0234   83.3632   13.5661 C.ar    1  UNL1        0.0220
     27 C          63.9531   83.3789   14.7431 C.ar    1  UNL1        0.0990
     28 N          64.5831   84.6667   15.1841 N.ar    1  UNL1       -0.2410
     29 C          64.2832   85.9389   14.4483 C.ar    1  UNL1        0.1136
@<TRIPOS>BOND
     1     9    10    1
     2    10    11    1
     3    10    12    1
     4    10     8    1
     5     8     2    1
     6     2     3    1
     7     3     4    1
     8     4     5    1
     9     5     1    1
    10     1    14    1
    11    14    15   ar
    12    15    16   ar
    13    16    17   ar
    14    17    20    1
    15    20    21    1
    16    20    22    1
    17    20    23    1
    18    17    18   ar
    19    18    19   ar
    20     1    24    1
    21    24    25   ar
    22    25    26   ar
    23    26    27   ar
    24    27    28   ar
    25    28    29   ar
    26     5     6    1
    27     6     7    1
    28     7     2    1
    29    19    14   ar
    30    29    24   ar
    31    12    13    1
