@<TRIPOS>MOLECULE
*****
 31 33 0 0 0
SMALL
GASTEIGER

@<TRIPOS>ATOM
      1 C          64.0001   89.7369   14.8809 C.2     1  UNL1        0.2316
      2 O          62.5603   89.7050   14.4611 O.2     1  UNL1       -0.2744
      3 N          64.8253   88.4856   14.8257 N.am    1  UNL1       -0.2677
      4 H          65.7702   88.5065   15.1012 H       1  UNL1        0.1563
      5 C          64.2108   87.2023   14.3507 C.ar    1  UNL1        0.1555
      6 C          64.2439   85.8883   15.0735 C.ar    1  UNL1        0.0564
      7 C          63.5089   84.8816   14.2391 C.ar    1  UNL1        0.0985
      8 N          63.0217   85.5733   13.0005 N.ar    1  UNL1       -0.2421
      9 N          63.4555   87.0076   13.0695 N.ar    1  UNL1       -0.1536
     10 C          62.2382   84.9417   11.8882 C.3     1  UNL1        0.1728
     11 C          61.5997   85.8017   10.8382 C.ar    1  UNL1        0.0837
     12 C          61.8095   85.4922    9.3855 C.ar    1  UNL1        0.0174
     13 C          61.1711   86.3522    8.3355 C.ar    1  UNL1        0.0131
     14 C          60.3228   87.5219    8.7381 C.ar    1  UNL1        0.0875
     15 C          60.1129   87.8316   10.1907 C.ar    1  UNL1        0.1087
     16 N          60.7514   86.9715   11.2407 N.ar    1  UNL1       -0.2454
     17 C          59.6843   88.3820    7.6880 C.1     1  UNL1        0.1020
     18 N          59.0458   89.2421    6.6379 N.1     1  UNL1       -0.1908
     19 C          64.6145   91.0202   15.3559 C.3     1  UNL1        0.1117
     20 C          65.1443   92.6992   10.4671 C.3     1  UNL1        0.0342
     21 C          65.4853   92.8119   11.9234 C.ar    1  UNL1        0.0121
     22 C          64.8794   91.8597   12.9115 C.ar    1  UNL1       -0.0050
     23 C          65.2204   91.9724   14.3678 C.ar    1  UNL1       -0.0132
     24 C          66.1674   93.0373   14.8361 C.ar    1  UNL1       -0.0007
     25 C          66.7733   93.9894   13.8481 C.ar    1  UNL1        0.0365
     26 C          66.4323   93.8767   12.3917 C.ar    1  UNL1        0.1428
     27 O          67.0382   94.8289   11.4037 O.3     1  UNL1       -0.4048
     28 C          66.1751   95.8422   10.7122 C.3     1  UNL1        0.5753
     29 F          65.3118   96.8556   10.0208 F       1  UNL1       -0.1328
     30 F          65.7741   96.4082   12.0422 F       1  UNL1       -0.1328
     31 F          66.5761   95.2763    9.3823 F       1  UNL1       -0.1328
@<TRIPOS>BOND
     1    20    21    1
     2    21    22   ar
     3    22    23   ar
     4    23    19    1
     5    19     1    1
     6     1     2    2
     7     1     3   am
     8     3     5    1
     9     5     6   ar
    10     6     7   ar
    11     7     8   ar
    12     8    10    1
    13    10    11    1
    14    11    12   ar
    15    12    13   ar
    16    13    14   ar
    17    14    17    1
    18    17    18    3
    19    14    15   ar
    20    15    16   ar
    21     8     9   ar
    22    23    24   ar
    23    24    25   ar
    24    25    26   ar
    25    26    27    1
    26    27    28    1
    27    28    29    1
    28    28    30    1
    29    28    31    1
    30    26    21   ar
    31     9     5   ar
    32    16    11   ar
    33     3     4    1
@<TRIPOS>MOLECULE
*****
 31 33 0 0 0
SMALL
GASTEIGER

@<TRIPOS>ATOM
      1 C          63.8508   89.3751   15.3932 C.2     1  UNL1        0.2316
      2 O          62.8595   88.8645   16.3965 O.2     1  UNL1       -0.2744
      3 N          64.6389   88.4091   14.5590 N.am    1  UNL1       -0.2677
      4 H          65.2895   88.7442   13.9005 H       1  UNL1        0.1563
      5 C          64.4356   86.9326   14.7280 C.ar    1  UNL1        0.1555
      6 C          65.5091   85.9197   14.9956 C.ar    1  UNL1        0.0564
      7 C          64.8601   84.5708   15.0921 C.ar    1  UNL1        0.0985
      8 N          63.3854   84.7501   14.8843 N.ar    1  UNL1       -0.2421
      9 N          63.1231   86.2097   14.6593 N.ar    1  UNL1       -0.1536
     10 C          62.3542   83.6609   14.8989 C.3     1  UNL1        0.1728
     11 C          62.4537   82.5208   13.9294 C.ar    1  UNL1        0.0837
     12 C          62.8019   82.7847   12.4944 C.ar    1  UNL1        0.0174
     13 C          62.9014   81.6446   11.5248 C.ar    1  UNL1        0.0131
     14 C          62.6527   80.2404   11.9902 C.ar    1  UNL1        0.0875
     15 C          62.3046   79.9765   13.4251 C.ar    1  UNL1        0.1087
     16 N          62.2050   81.1167   14.3947 N.ar    1  UNL1       -0.2454
     17 C          62.7523   79.1002   11.0206 C.1     1  UNL1        0.1020
     18 N          62.8518   77.9600   10.0510 N.1     1  UNL1       -0.1908
     19 C          64.0541   90.8516   15.2241 C.3     1  UNL1        0.1117
     20 C          63.5795   91.5619   10.0986 C.3     1  UNL1        0.0342
     21 C          64.3548   91.7466   11.3694 C.ar    1  UNL1        0.0121
     22 C          63.8169   91.2068   12.6613 C.ar    1  UNL1       -0.0050
     23 C          64.5921   91.3915   13.9321 C.ar    1  UNL1       -0.0132
     24 C          65.9053   92.1161   13.9109 C.ar    1  UNL1       -0.0007
     25 C          66.4432   92.6560   12.6190 C.ar    1  UNL1        0.0365
     26 C          65.6679   92.4712   11.3482 C.ar    1  UNL1        0.1428
     27 O          66.2059   93.0112   10.0562 O.3     1  UNL1       -0.4048
     28 C          67.6839   93.0101    9.8005 C.3     1  UNL1        0.5753
     29 F          69.1620   93.0091    9.5447 F       1  UNL1       -0.1328
     30 F          67.6982   94.5081    9.8769 F       1  UNL1       -0.1328
     31 F          67.6696   91.5121    9.7241 F       1  UNL1       -0.1328
@<TRIPOS>BOND
     1    20    21    1
     2    21    22   ar
     3    22    23   ar
     4    23    19    1
     5    19     1    1
     6     1     2    2
     7     1     3   am
     8     3     5    1
     9     5     6   ar
    10     6     7   ar
    11     7     8   ar
    12     8    10    1
    13    10    11    1
    14    11    12   ar
    15    12    13   ar
    16    13    14   ar
    17    14    17    1
    18    17    18    3
    19    14    15   ar
    20    15    16   ar
    21     8     9   ar
    22    23    24   ar
    23    24    25   ar
    24    25    26   ar
    25    26    27    1
    26    27    28    1
    27    28    29    1
    28    28    30    1
    29    28    31    1
    30    26    21   ar
    31     9     5   ar
    32    16    11   ar
    33     3     4    1
@<TRIPOS>MOLECULE
*****
 31 33 0 0 0
SMALL
GASTEIGER

@<TRIPOS>ATOM
      1 C          63.5372   89.6861   15.7322 C.2     1  UNL1        0.2316
      2 O          62.1083   89.3616   16.0531 O.2     1  UNL1       -0.2744
      3 N          64.4874   88.5905   15.3490 N.am    1  UNL1       -0.2677
      4 H          65.4252   88.8036   15.1384 H       1  UNL1        0.1563
      5 C          64.0087   87.1703   15.2868 C.ar    1  UNL1        0.1555
      6 C          63.5113   86.3560   16.4442 C.ar    1  UNL1        0.0564
      7 C          63.1386   84.9975   15.9290 C.ar    1  UNL1        0.0985
      8 N          63.4055   84.9722   14.4531 N.ar    1  UNL1       -0.2421
      9 N          63.9433   86.3151   14.0563 N.ar    1  UNL1       -0.1536
     10 C          63.1752   83.8083   13.5353 C.3     1  UNL1        0.1728
     11 C          63.0831   84.0279   12.0544 C.ar    1  UNL1        0.0837
     12 C          63.9102   83.1955   11.1199 C.ar    1  UNL1        0.0174
     13 C          63.8181   83.4150    9.6389 C.ar    1  UNL1        0.0131
     14 C          62.8991   84.4670    9.0924 C.ar    1  UNL1        0.0875
     15 C          62.0720   85.2993   10.0268 C.ar    1  UNL1        0.1087
     16 N          62.1641   85.0798   11.5078 N.ar    1  UNL1       -0.2454
     17 C          62.8070   84.6865    7.6113 C.1     1  UNL1        0.1020
     18 N          62.7150   84.9061    6.1303 N.1     1  UNL1       -0.1908
     19 C          64.0159   91.1063   15.7944 C.3     1  UNL1        0.1117
     20 C          64.5640   92.0218   10.7090 C.3     1  UNL1        0.0342
     21 C          65.0783   92.1404   12.1130 C.ar    1  UNL1        0.0121
     22 C          64.2900   91.5641   13.2517 C.ar    1  UNL1       -0.0050
     23 C          64.8043   91.6826   14.6557 C.ar    1  UNL1       -0.0132
     24 C          66.1068   92.3775   14.9212 C.ar    1  UNL1       -0.0007
     25 C          66.8951   92.9538   13.7826 C.ar    1  UNL1        0.0365
     26 C          66.3808   92.8352   12.3785 C.ar    1  UNL1        0.1428
     27 O          67.1692   93.4115   11.2399 O.3     1  UNL1       -0.4048
     28 C          67.7337   92.5070   10.1848 C.3     1  UNL1        0.5753
     29 F          68.2982   91.6024    9.1297 F       1  UNL1       -0.1328
     30 F          67.1030   93.3550    9.1204 F       1  UNL1       -0.1328
     31 F          68.3643   91.6590   11.2493 F       1  UNL1       -0.1328
@<TRIPOS>BOND
     1    20    21    1
     2    21    22   ar
     3    22    23   ar
     4    23    19    1
     5    19     1    1
     6     1     2    2
     7     1     3   am
     8     3     5    1
     9     5     6   ar
    10     6     7   ar
    11     7     8   ar
    12     8    10    1
    13    10    11    1
    14    11    12   ar
    15    12    13   ar
    16    13    14   ar
    17    14    17    1
    18    17    18    3
    19    14    15   ar
    20    15    16   ar
    21     8     9   ar
    22    23    24   ar
    23    24    25   ar
    24    25    26   ar
    25    26    27    1
    26    27    28    1
    27    28    29    1
    28    28    30    1
    29    28    31    1
    30    26    21   ar
    31     9     5   ar
    32    16    11   ar
    33     3     4    1
@<TRIPOS>MOLECULE
*****
 31 33 0 0 0
SMALL
GASTEIGER

@<TRIPOS>ATOM
      1 C          61.8969   89.6895   12.0619 C.2     1  UNL1        0.2316
      2 O          60.4352   89.7037   12.3985 O.2     1  UNL1       -0.2744
      3 N          62.3604   89.1149   10.7562 N.am    1  UNL1       -0.2677
      4 H          63.3198   89.1057   10.5354 H       1  UNL1        0.1563
      5 C          61.3622   88.5544    9.7869 C.ar    1  UNL1        0.1555
      6 C          61.0403   87.1022    9.5938 C.ar    1  UNL1        0.0564
      7 C          59.9898   86.9980    8.5281 C.ar    1  UNL1        0.0985
      8 N          59.6625   88.3859    8.0627 N.ar    1  UNL1       -0.2421
      9 N          60.5107   89.3478    8.8407 N.ar    1  UNL1       -0.1536
     10 C          58.6625   88.7482    7.0049 C.3     1  UNL1        0.1728
     11 C          58.9454   89.8794    6.0615 C.ar    1  UNL1        0.0837
     12 C          57.8218   90.7391    5.5629 C.ar    1  UNL1        0.0174
     13 C          58.1046   91.8704    4.6195 C.ar    1  UNL1        0.0131
     14 C          59.5111   92.1421    4.1745 C.ar    1  UNL1        0.0875
     15 C          60.6347   91.2824    4.6730 C.ar    1  UNL1        0.1087
     16 N          60.3518   90.1511    5.6165 N.ar    1  UNL1       -0.2454
     17 C          59.7940   93.2734    3.2310 C.1     1  UNL1        0.1020
     18 N          60.0769   94.4047    2.2875 N.1     1  UNL1       -0.1908
     19 C          62.8951   90.2500   13.0312 C.3     1  UNL1        0.1117
     20 C          67.6289   92.2580   13.7792 C.3     1  UNL1        0.0342
     21 C          66.4291   92.0512   12.9029 C.ar    1  UNL1        0.0121
     22 C          65.2620   91.2540   13.4051 C.ar    1  UNL1       -0.0050
     23 C          64.0623   91.0472   12.5289 C.ar    1  UNL1       -0.0132
     24 C          64.0296   91.6376   11.1504 C.ar    1  UNL1       -0.0007
     25 C          65.1968   92.4348   10.6481 C.ar    1  UNL1        0.0365
     26 C          66.3965   92.6416   11.5244 C.ar    1  UNL1        0.1428
     27 O          67.5637   93.4388   11.0221 O.3     1  UNL1       -0.4048
     28 C          68.2871   93.0086    9.7805 C.3     1  UNL1        0.5753
     29 F          69.0105   92.5783    8.5389 F       1  UNL1       -0.1328
     30 F          68.3227   91.5982   10.2899 F       1  UNL1       -0.1328
     31 F          68.2515   94.4189    9.2711 F       1  UNL1       -0.1328
@<TRIPOS>BOND
     1    20    21    1
     2    21    22   ar
     3    22    23   ar
     4    23    19    1
     5    19     1    1
     6     1     2    2
     7     1     3   am
     8     3     5    1
     9     5     6   ar
    10     6     7   ar
    11     7     8   ar
    12     8    10    1
    13    10    11    1
    14    11    12   ar
    15    12    13   ar
    16    13    14   ar
    17    14    17    1
    18    17    18    3
    19    14    15   ar
    20    15    16   ar
    21     8     9   ar
    22    23    24   ar
    23    24    25   ar
    24    25    26   ar
    25    26    27    1
    26    27    28    1
    27    28    29    1
    28    28    30    1
    29    28    31    1
    30    26    21   ar
    31     9     5   ar
    32    16    11   ar
    33     3     4    1
@<TRIPOS>MOLECULE
*****
 31 33 0 0 0
SMALL
GASTEIGER

@<TRIPOS>ATOM
      1 C          62.7764   88.2902   11.8059 C.2     1  UNL1        0.2316
      2 O          62.6152   89.6546   11.2038 O.2     1  UNL1       -0.2744
      3 N          63.4355   88.1342   13.1442 N.am    1  UNL1       -0.2677
      4 H          63.5413   87.2387   13.5394 H       1  UNL1        0.1563
      5 C          63.9334   89.3424   13.8805 C.ar    1  UNL1        0.1555
      6 C          63.4749   89.8020   15.2327 C.ar    1  UNL1        0.0564
      7 C          64.2353   91.0469   15.5818 C.ar    1  UNL1        0.0985
      8 N          65.1639   91.3568   14.4453 N.ar    1  UNL1       -0.2421
      9 N          64.9773   90.3034   13.3938 N.ar    1  UNL1       -0.1536
     10 C          66.1125   92.5165   14.3729 C.3     1  UNL1        0.1728
     11 C          66.2994   93.2530   13.0796 C.ar    1  UNL1        0.0837
     12 C          66.6993   92.5058   11.8419 C.ar    1  UNL1        0.0174
     13 C          66.8861   93.2422   10.5487 C.ar    1  UNL1        0.0131
     14 C          66.6732   94.7260   10.4930 C.ar    1  UNL1        0.0875
     15 C          66.2733   95.4732   11.7306 C.ar    1  UNL1        0.1087
     16 N          66.0864   94.7367   13.0239 N.ar    1  UNL1       -0.2454
     17 C          66.8601   95.4625    9.1997 C.1     1  UNL1        0.1020
     18 N          67.0469   96.1990    7.9064 N.1     1  UNL1       -0.1908
     19 C          62.2785   87.0819   11.0696 C.3     1  UNL1        0.1117
     20 C          63.9558   82.2366   10.2271 C.3     1  UNL1        0.0342
     21 C          63.4313   83.2855   11.1623 C.ar    1  UNL1        0.0121
     22 C          63.1171   84.6592   10.6484 C.ar    1  UNL1       -0.0050
     23 C          62.5927   85.7081   11.5836 C.ar    1  UNL1       -0.0132
     24 C          62.3825   85.3834   13.0329 C.ar    1  UNL1       -0.0007
     25 C          62.6966   84.0097   13.5468 C.ar    1  UNL1        0.0365
     26 C          63.2211   82.9608   12.6116 C.ar    1  UNL1        0.1428
     27 O          63.5353   81.5870   13.1256 O.3     1  UNL1       -0.4048
     28 C          62.4268   80.6073   13.3734 C.3     1  UNL1        0.5753
     29 F          61.3184   79.6275   13.6211 F       1  UNL1       -0.1328
     30 F          62.7659   79.9003   12.0946 F       1  UNL1       -0.1328
     31 F          62.0878   81.3142   14.6521 F       1  UNL1       -0.1328
@<TRIPOS>BOND
     1    20    21    1
     2    21    22   ar
     3    22    23   ar
     4    23    19    1
     5    19     1    1
     6     1     2    2
     7     1     3   am
     8     3     5    1
     9     5     6   ar
    10     6     7   ar
    11     7     8   ar
    12     8    10    1
    13    10    11    1
    14    11    12   ar
    15    12    13   ar
    16    13    14   ar
    17    14    17    1
    18    17    18    3
    19    14    15   ar
    20    15    16   ar
    21     8     9   ar
    22    23    24   ar
    23    24    25   ar
    24    25    26   ar
    25    26    27    1
    26    27    28    1
    27    28    29    1
    28    28    30    1
    29    28    31    1
    30    26    21   ar
    31     9     5   ar
    32    16    11   ar
    33     3     4    1
@<TRIPOS>MOLECULE
*****
 31 33 0 0 0
SMALL
GASTEIGER

@<TRIPOS>ATOM
      1 C          63.1528   89.5213   13.7165 C.2     1  UNL1        0.2316
      2 O          63.2075   88.2836   12.8708 O.2     1  UNL1       -0.2744
      3 N          63.1960   89.4105   15.2118 N.am    1  UNL1       -0.2677
      4 H          63.1601   90.2229   15.7668 H       1  UNL1        0.1563
      5 C          63.2939   88.0621   15.8614 C.ar    1  UNL1        0.1555
      6 C          62.7062   87.6771   17.1867 C.ar    1  UNL1        0.0564
      7 C          63.0458   86.2389   17.4443 C.ar    1  UNL1        0.0985
      8 N          63.8433   85.7350   16.2781 N.ar    1  UNL1       -0.2421
      9 N          63.9967   86.8618   15.2999 N.ar    1  UNL1       -0.1536
     10 C          64.3913   84.3479   16.1182 C.3     1  UNL1        0.1728
     11 C          64.0803   83.5564   14.8827 C.ar    1  UNL1        0.0837
     12 C          64.6068   84.0055   13.5518 C.ar    1  UNL1        0.0174
     13 C          64.2957   83.2140   12.3163 C.ar    1  UNL1        0.0131
     14 C          63.4581   81.9733   12.4114 C.ar    1  UNL1        0.0875
     15 C          62.9315   81.5242   13.7422 C.ar    1  UNL1        0.1087
     16 N          63.2426   82.3157   14.9778 N.ar    1  UNL1       -0.2454
     17 C          63.1470   81.1818   11.1758 C.1     1  UNL1        0.1020
     18 N          62.8358   80.3903    9.9402 N.1     1  UNL1       -0.1908
     19 C          63.0549   90.8698   13.0669 C.3     1  UNL1        0.1117
     20 C          67.9914   92.4441   13.4572 C.3     1  UNL1        0.0342
     21 C          66.7395   92.2831   12.6468 C.ar    1  UNL1        0.0121
     22 C          65.5232   91.6570   13.2620 C.ar    1  UNL1       -0.0050
     23 C          64.2713   91.4959   12.4516 C.ar    1  UNL1       -0.0132
     24 C          64.2357   91.9610   11.0260 C.ar    1  UNL1       -0.0007
     25 C          65.4520   92.5871   10.4108 C.ar    1  UNL1        0.0365
     26 C          66.7039   92.7482   11.2212 C.ar    1  UNL1        0.1428
     27 O          67.9203   93.3743   10.6060 O.3     1  UNL1       -0.4048
     28 C          68.5188   92.7865    9.3625 C.3     1  UNL1        0.5753
     29 F          69.1174   92.1987    8.1190 F       1  UNL1       -0.1328
     30 F          68.4906   94.1371    8.7105 F       1  UNL1       -0.1328
     31 F          68.5470   91.4360   10.0146 F       1  UNL1       -0.1328
@<TRIPOS>BOND
     1    20    21    1
     2    21    22   ar
     3    22    23   ar
     4    23    19    1
     5    19     1    1
     6     1     2    2
     7     1     3   am
     8     3     5    1
     9     5     6   ar
    10     6     7   ar
    11     7     8   ar
    12     8    10    1
    13    10    11    1
    14    11    12   ar
    15    12    13   ar
    16    13    14   ar
    17    14    17    1
    18    17    18    3
    19    14    15   ar
    20    15    16   ar
    21     8     9   ar
    22    23    24   ar
    23    24    25   ar
    24    25    26   ar
    25    26    27    1
    26    27    28    1
    27    28    29    1
    28    28    30    1
    29    28    31    1
    30    26    21   ar
    31     9     5   ar
    32    16    11   ar
    33     3     4    1
@<TRIPOS>MOLECULE
*****
 31 33 0 0 0
SMALL
GASTEIGER

@<TRIPOS>ATOM
      1 C          62.3181   89.7075   11.5534 C.2     1  UNL1        0.2316
      2 O          62.4948   91.0665   10.9435 O.2     1  UNL1       -0.2744
      3 N          63.0527   89.3485   12.8110 N.am    1  UNL1       -0.2677
      4 H          62.9367   88.4566   13.2113 H       1  UNL1        0.1563
      5 C          63.9640   90.3485   13.4587 C.ar    1  UNL1        0.1555
      6 C          64.1572   90.5395   14.9339 C.ar    1  UNL1        0.0564
      7 C          65.1546   91.6422   15.1319 C.ar    1  UNL1        0.0985
      8 N          65.5779   92.1327   13.7791 N.ar    1  UNL1       -0.2421
      9 N          64.8421   91.3332   12.7450 N.ar    1  UNL1       -0.1536
     10 C          66.5640   93.2300   13.5079 C.3     1  UNL1        0.1728
     11 C          66.5393   93.9526   12.1937 C.ar    1  UNL1        0.0837
     12 C          66.9668   93.2465   10.9413 C.ar    1  UNL1        0.0174
     13 C          66.9421   93.9691    9.6271 C.ar    1  UNL1        0.0131
     14 C          66.4899   95.3979    9.5652 C.ar    1  UNL1        0.0875
     15 C          66.0623   96.1041   10.8176 C.ar    1  UNL1        0.1087
     16 N          66.0870   95.3815   12.1318 N.ar    1  UNL1       -0.2454
     17 C          66.4651   96.1205    8.2510 C.1     1  UNL1        0.1020
     18 N          66.4404   96.8432    6.9367 N.1     1  UNL1       -0.1908
     19 C          61.4068   88.7075   10.9057 C.3     1  UNL1        0.1117
     20 C          62.8865   84.9517    7.6338 C.3     1  UNL1        0.0342
     21 C          62.6210   85.4266    9.0317 C.ar    1  UNL1        0.0121
     22 C          62.1467   86.8295    9.2698 C.ar    1  UNL1       -0.0050
     23 C          61.8812   87.3044   10.6676 C.ar    1  UNL1       -0.0132
     24 C          62.0900   86.3764   11.8274 C.ar    1  UNL1       -0.0007
     25 C          62.5643   84.9734   11.5893 C.ar    1  UNL1        0.0365
     26 C          62.8298   84.4986   10.1914 C.ar    1  UNL1        0.1428
     27 O          63.3041   83.0955    9.9534 O.3     1  UNL1       -0.4048
     28 C          63.9532   82.3246   11.0643 C.3     1  UNL1        0.5753
     29 F          64.6024   81.5537   12.1754 F       1  UNL1       -0.1328
     30 F          65.2215   83.0991   10.8607 F       1  UNL1       -0.1328
     31 F          62.6849   81.5501   11.2680 F       1  UNL1       -0.1328
@<TRIPOS>BOND
     1    20    21    1
     2    21    22   ar
     3    22    23   ar
     4    23    19    1
     5    19     1    1
     6     1     2    2
     7     1     3   am
     8     3     5    1
     9     5     6   ar
    10     6     7   ar
    11     7     8   ar
    12     8    10    1
    13    10    11    1
    14    11    12   ar
    15    12    13   ar
    16    13    14   ar
    17    14    17    1
    18    17    18    3
    19    14    15   ar
    20    15    16   ar
    21     8     9   ar
    22    23    24   ar
    23    24    25   ar
    24    25    26   ar
    25    26    27    1
    26    27    28    1
    27    28    29    1
    28    28    30    1
    29    28    31    1
    30    26    21   ar
    31     9     5   ar
    32    16    11   ar
    33     3     4    1
@<TRIPOS>MOLECULE
*****
 31 33 0 0 0
SMALL
GASTEIGER

@<TRIPOS>ATOM
      1 C          61.0687   89.0475   11.7209 C.2     1  UNL1        0.2316
      2 O          60.5192   89.6819   12.9641 O.2     1  UNL1       -0.2744
      3 N          62.5392   89.1135   11.4323 N.am    1  UNL1       -0.2677
      4 H          62.8999   88.6970   10.6164 H       1  UNL1        0.1563
      5 C          63.4602   89.8139   12.3869 C.ar    1  UNL1        0.1555
      6 C          63.8499   89.3293   13.7520 C.ar    1  UNL1        0.0564
      7 C          64.7837   90.3378   14.3528 C.ar    1  UNL1        0.0985
      8 N          64.9711   91.4457   13.3591 N.ar    1  UNL1       -0.2421
      9 N          64.1531   91.1219   12.1441 N.ar    1  UNL1       -0.1536
     10 C          65.8264   92.6635   13.5472 C.3     1  UNL1        0.1728
     11 C          66.2089   93.5015   12.3635 C.ar    1  UNL1        0.0837
     12 C          66.8386   92.8603   11.1626 C.ar    1  UNL1        0.0174
     13 C          67.2211   93.6983    9.9789 C.ar    1  UNL1        0.0131
     14 C          66.9739   95.1776    9.9959 C.ar    1  UNL1        0.0875
     15 C          66.3442   95.8190   11.1968 C.ar    1  UNL1        0.1087
     16 N          65.9616   94.9809   12.3806 N.ar    1  UNL1       -0.2454
     17 C          67.3565   96.0157    8.8121 C.1     1  UNL1        0.1020
     18 N          67.7390   96.8538    7.6283 N.1     1  UNL1       -0.1908
     19 C          60.1478   88.3471   10.7663 C.3     1  UNL1        0.1117
     20 C          63.4717   84.4921    9.7218 C.3     1  UNL1        0.0342
     21 C          62.3534   85.3951    9.2928 C.ar    1  UNL1        0.0121
     22 C          61.8097   86.4196   10.2440 C.ar    1  UNL1       -0.0050
     23 C          60.6914   87.3225    9.8150 C.ar    1  UNL1       -0.0132
     24 C          60.1168   87.2010    8.4348 C.ar    1  UNL1       -0.0007
     25 C          60.6604   86.1765    7.4837 C.ar    1  UNL1        0.0365
     26 C          61.7787   85.2735    7.9127 C.ar    1  UNL1        0.1428
     27 O          62.3224   84.2490    6.9614 O.3     1  UNL1       -0.4048
     28 C          61.8903   84.2553    5.5250 C.3     1  UNL1        0.5753
     29 F          61.4581   84.2615    4.0886 F       1  UNL1       -0.1328
     30 F          60.5856   83.6262    5.9148 F       1  UNL1       -0.1328
     31 F          63.1950   84.8843    5.1353 F       1  UNL1       -0.1328
@<TRIPOS>BOND
     1    20    21    1
     2    21    22   ar
     3    22    23   ar
     4    23    19    1
     5    19     1    1
     6     1     2    2
     7     1     3   am
     8     3     5    1
     9     5     6   ar
    10     6     7   ar
    11     7     8   ar
    12     8    10    1
    13    10    11    1
    14    11    12   ar
    15    12    13   ar
    16    13    14   ar
    17    14    17    1
    18    17    18    3
    19    14    15   ar
    20    15    16   ar
    21     8     9   ar
    22    23    24   ar
    23    24    25   ar
    24    25    26   ar
    25    26    27    1
    26    27    28    1
    27    28    29    1
    28    28    30    1
    29    28    31    1
    30    26    21   ar
    31     9     5   ar
    32    16    11   ar
    33     3     4    1
@<TRIPOS>MOLECULE
*****
 31 33 0 0 0
SMALL
GASTEIGER

@<TRIPOS>ATOM
      1 C          62.4046   89.6944   11.7444 C.2     1  UNL1        0.2316
      2 O          63.0453   90.3401   10.5517 O.2     1  UNL1       -0.2744
      3 N          61.3038   88.6934   11.5543 N.am    1  UNL1       -0.2677
      4 H          60.8832   88.2695   12.3371 H       1  UNL1        0.1563
      5 C          60.8437   88.3381   10.1715 C.ar    1  UNL1        0.1555
      6 C          61.3845   87.2276    9.3204 C.ar    1  UNL1        0.0564
      7 C          60.6371   87.2340    8.0199 C.ar    1  UNL1        0.0985
      8 N          59.6343   88.3486    8.0672 N.ar    1  UNL1       -0.2421
      9 N          59.7620   89.0309    9.3969 N.ar    1  UNL1       -0.1536
     10 C          58.6727   88.7163    6.9763 C.3     1  UNL1        0.1728
     11 C          58.9838   89.8591    6.0560 C.ar    1  UNL1        0.0837
     12 C          57.8816   90.7541    5.5722 C.ar    1  UNL1        0.0174
     13 C          58.1927   91.8969    4.6519 C.ar    1  UNL1        0.0131
     14 C          59.6062   92.1448    4.2153 C.ar    1  UNL1        0.0875
     15 C          60.7084   91.2498    4.6989 C.ar    1  UNL1        0.1087
     16 N          60.3973   90.1070    5.6193 N.ar    1  UNL1       -0.2454
     17 C          59.9174   93.2877    3.2949 C.1     1  UNL1        0.1020
     18 N          60.2285   94.4305    2.3745 N.1     1  UNL1       -0.1908
     19 C          62.8646   90.0496   13.1272 C.3     1  UNL1        0.1117
     20 C          66.0576   93.8969   11.7115 C.3     1  UNL1        0.0342
     21 C          65.7353   92.7411   12.6117 C.ar    1  UNL1        0.0121
     22 C          64.4611   91.9733   12.4194 C.ar    1  UNL1       -0.0050
     23 C          64.1388   90.8175   13.3195 C.ar    1  UNL1       -0.0132
     24 C          65.0907   90.4295   14.4120 C.ar    1  UNL1       -0.0007
     25 C          66.3648   91.1973   14.6042 C.ar    1  UNL1        0.0365
     26 C          66.6871   92.3531   13.7041 C.ar    1  UNL1        0.1428
     27 O          67.9613   93.1210   13.8964 O.3     1  UNL1       -0.4048
     28 C          68.7096   93.0196   15.1924 C.3     1  UNL1        0.5753
     29 F          69.4580   92.9183   16.4885 F       1  UNL1       -0.1328
     30 F          67.6187   93.7838   15.8821 F       1  UNL1       -0.1328
     31 F          69.8006   92.2555   14.5027 F       1  UNL1       -0.1328
@<TRIPOS>BOND
     1    20    21    1
     2    21    22   ar
     3    22    23   ar
     4    23    19    1
     5    19     1    1
     6     1     2    2
     7     1     3   am
     8     3     5    1
     9     5     6   ar
    10     6     7   ar
    11     7     8   ar
    12     8    10    1
    13    10    11    1
    14    11    12   ar
    15    12    13   ar
    16    13    14   ar
    17    14    17    1
    18    17    18    3
    19    14    15   ar
    20    15    16   ar
    21     8     9   ar
    22    23    24   ar
    23    24    25   ar
    24    25    26   ar
    25    26    27    1
    26    27    28    1
    27    28    29    1
    28    28    30    1
    29    28    31    1
    30    26    21   ar
    31     9     5   ar
    32    16    11   ar
    33     3     4    1
