@<TRIPOS>MOLECULE
*****
 25 27 0 0 0
SMALL
GASTEIGER

@<TRIPOS>ATOM
      1 C          61.8086   88.6664   10.4786 C.ar    1  UNL1        0.0534
      2 C          62.0085   89.9327    9.7000 C.ar    1  UNL1        0.0045
      3 C          62.9083   91.0075   10.2340 C.ar    1  UNL1        0.0001
      4 C          63.6083   90.8159   11.5467 C.ar    1  UNL1       -0.0002
      5 C          64.5081   91.8906   12.0808 C.ar    1  UNL1       -0.0017
      6 C          65.2081   91.6990   13.3935 C.ar    1  UNL1        0.0070
      7 C          65.0083   90.4326   14.1722 C.ar    1  UNL1       -0.0017
      8 C          64.1085   89.3578   13.6381 C.ar    1  UNL1       -0.0002
      9 C          63.4085   89.5495   12.3254 C.ar    1  UNL1        0.0001
     10 C          62.5086   88.4747   11.7913 C.ar    1  UNL1        0.0045
     11 C          59.1459   86.7873    8.2139 C.3     1  UNL1        0.1109
     12 N          60.0457   87.8621    8.7480 N.am    1  UNL1       -0.2992
     13 C          60.9088   87.5916    9.9445 C.2     1  UNL1        0.2459
     14 O          60.8721   86.2464   10.6071 O.2     1  UNL1       -0.2701
     15 H          60.0698   88.7450    8.3131 H       1  UNL1        0.1498
     16 C          66.1080   92.7738   13.9275 C.3     1  UNL1        0.1415
     17 C          67.0078   93.8485   14.4616 C.3     1  UNL1        0.0401
     18 O          65.3275   92.7907   15.2084 O.3     1  UNL1       -0.3771
     19 H          65.4677   91.9566   15.6834 H       1  UNL1        0.2112
     20 C          66.8884   92.7568   12.6466 C.ar    1  UNL1        0.0859
     21 C          67.9004   91.7254   12.2445 C.ar    1  UNL1        0.1160
     22 N          68.4313   92.0995   10.8923 N.ar    1  UNL1       -0.2226
     23 C          67.7473   93.3621   10.4589 C.ar    1  UNL1        0.1784
     24 N          66.7937   93.7684   11.5432 N.ar    1  UNL1       -0.3082
     25 C          65.9021   94.9745   11.5268 C.3     1  UNL1        0.1318
@<TRIPOS>BOND
     1    11    12    1
     2    12    13   am
     3    13    14    2
     4    13     1    1
     5     1     2   ar
     6     2     3   ar
     7     3     4   ar
     8     4     5   ar
     9     5     6   ar
    10     6    16    1
    11    16    17    1
    12    16    18    1
    13    16    20    1
    14    20    21   ar
    15    21    22   ar
    16    22    23   ar
    17    23    24   ar
    18    24    25    1
    19     6     7   ar
    20     7     8   ar
    21     8     9   ar
    22     9    10   ar
    23    10     1   ar
    24     9     4   ar
    25    24    20   ar
    26    12    15    1
    27    18    19    1
@<TRIPOS>MOLECULE
*****
 25 27 0 0 0
SMALL
GASTEIGER

@<TRIPOS>ATOM
      1 C          61.7588   88.0879   10.3388 C.ar    1  UNL1        0.0534
      2 C          62.2770   87.6183   11.6658 C.ar    1  UNL1        0.0045
      3 C          63.2085   88.4875   12.4575 C.ar    1  UNL1        0.0001
      4 C          63.6217   89.8264   11.9222 C.ar    1  UNL1       -0.0002
      5 C          64.5531   90.6957   12.7139 C.ar    1  UNL1       -0.0017
      6 C          64.9664   92.0346   12.1787 C.ar    1  UNL1        0.0070
      7 C          64.4481   92.5043   10.8517 C.ar    1  UNL1       -0.0017
      8 C          63.5167   91.6351   10.0600 C.ar    1  UNL1       -0.0002
      9 C          63.1035   90.2961   10.5953 C.ar    1  UNL1        0.0001
     10 C          62.1720   89.4268    9.8036 C.ar    1  UNL1        0.0045
     11 C          58.8763   86.9731    7.8492 C.3     1  UNL1        0.1109
     12 N          59.8078   87.8424    8.6408 N.am    1  UNL1       -0.2992
     13 C          60.8273   87.2187    9.5472 C.2     1  UNL1        0.2459
     14 O          60.9154   85.7257    9.6618 O.2     1  UNL1       -0.2701
     15 H          59.7499   88.8223    8.5656 H       1  UNL1        0.1498
     16 C          65.8978   92.9039   12.9704 C.3     1  UNL1        0.1415
     17 C          66.8293   93.7731   13.7621 C.3     1  UNL1        0.0401
     18 O          65.1470   92.5664   14.2243 O.3     1  UNL1       -0.3771
     19 H          65.2823   91.6304   14.4402 H       1  UNL1        0.2112
     20 C          66.6486   93.2414   11.7164 C.ar    1  UNL1        0.0859
     21 C          67.5287   92.3091   10.9379 C.ar    1  UNL1        0.1160
     22 N          68.0752   93.0620    9.7612 N.ar    1  UNL1       -0.2226
     23 C          67.5328   94.4595    9.8126 C.ar    1  UNL1        0.1784
     24 N          66.6511   94.5704   11.0210 N.ar    1  UNL1       -0.3082
     25 C          65.9033   95.7952   11.4574 C.3     1  UNL1        0.1318
@<TRIPOS>BOND
     1    11    12    1
     2    12    13   am
     3    13    14    2
     4    13     1    1
     5     1     2   ar
     6     2     3   ar
     7     3     4   ar
     8     4     5   ar
     9     5     6   ar
    10     6    16    1
    11    16    17    1
    12    16    18    1
    13    16    20    1
    14    20    21   ar
    15    21    22   ar
    16    22    23   ar
    17    23    24   ar
    18    24    25    1
    19     6     7   ar
    20     7     8   ar
    21     8     9   ar
    22     9    10   ar
    23    10     1   ar
    24     9     4   ar
    25    24    20   ar
    26    12    15    1
    27    18    19    1
@<TRIPOS>MOLECULE
*****
 25 27 0 0 0
SMALL
GASTEIGER

@<TRIPOS>ATOM
      1 C          60.5961   87.0679    9.0001 C.ar    1  UNL1        0.0534
      2 C          60.3277   87.5697   10.3879 C.ar    1  UNL1        0.0045
      3 C          61.0412   86.9589   11.5574 C.ar    1  UNL1        0.0001
      4 C          62.0232   85.8463   11.3392 C.ar    1  UNL1       -0.0002
      5 C          62.7367   85.2355   12.5087 C.ar    1  UNL1       -0.0017
      6 C          63.7187   84.1228   12.2904 C.ar    1  UNL1        0.0070
      7 C          63.9872   83.6209   10.9026 C.ar    1  UNL1       -0.0017
      8 C          63.2736   84.2317    9.7330 C.ar    1  UNL1       -0.0002
      9 C          62.2916   85.3444    9.9514 C.ar    1  UNL1        0.0001
     10 C          61.5781   85.9552    8.7818 C.ar    1  UNL1        0.0045
     11 C          59.2570   89.7669    6.4171 C.3     1  UNL1        0.1109
     12 N          59.9705   89.1561    7.5866 N.am    1  UNL1       -0.2992
     13 C          59.8826   87.6787    7.8306 C.2     1  UNL1        0.2459
     14 O          59.0812   86.8121    6.9050 O.2     1  UNL1       -0.2701
     15 H          60.4965   89.7249    8.1941 H       1  UNL1        0.1498
     16 C          64.4322   83.5120   13.4600 C.3     1  UNL1        0.1415
     17 C          65.1457   82.9012   14.6295 C.3     1  UNL1        0.0401
     18 O          65.5104   84.5483   13.3433 O.3     1  UNL1       -0.3771
     19 H          65.1495   85.4180   13.5761 H       1  UNL1        0.2112
     20 C          63.3539   82.4758   13.5766 C.ar    1  UNL1        0.0859
     21 C          63.2749   81.1945   12.8007 C.ar    1  UNL1        0.1160
     22 N          62.0376   80.4657   13.2341 N.ar    1  UNL1       -0.2226
     23 C          61.3519   81.2966   14.2779 C.ar    1  UNL1        0.1784
     24 N          62.1655   82.5389   14.4895 N.ar    1  UNL1       -0.3082
     25 C          61.8466   83.6494   15.4462 C.3     1  UNL1        0.1318
@<TRIPOS>BOND
     1    11    12    1
     2    12    13   am
     3    13    14    2
     4    13     1    1
     5     1     2   ar
     6     2     3   ar
     7     3     4   ar
     8     4     5   ar
     9     5     6   ar
    10     6    16    1
    11    16    17    1
    12    16    18    1
    13    16    20    1
    14    20    21   ar
    15    21    22   ar
    16    22    23   ar
    17    23    24   ar
    18    24    25    1
    19     6     7   ar
    20     7     8   ar
    21     8     9   ar
    22     9    10   ar
    23    10     1   ar
    24     9     4   ar
    25    24    20   ar
    26    12    15    1
    27    18    19    1
@<TRIPOS>MOLECULE
*****
 25 27 0 0 0
SMALL
GASTEIGER

@<TRIPOS>ATOM
      1 C          60.6579   87.9441    9.3472 C.ar    1  UNL1        0.0534
      2 C          60.3343   87.8254   10.8070 C.ar    1  UNL1        0.0045
      3 C          60.9473   86.7271   11.6242 C.ar    1  UNL1        0.0001
      4 C          61.8840   85.7474   10.9816 C.ar    1  UNL1       -0.0002
      5 C          62.4970   84.6491   11.7988 C.ar    1  UNL1       -0.0017
      6 C          63.4336   83.6695   11.1562 C.ar    1  UNL1        0.0070
      7 C          63.7573   83.7882    9.6963 C.ar    1  UNL1       -0.0017
      8 C          63.1443   84.8865    8.8791 C.ar    1  UNL1       -0.0002
      9 C          62.2076   85.8662    9.5218 C.ar    1  UNL1        0.0001
     10 C          61.5946   86.9645    8.7046 C.ar    1  UNL1        0.0045
     11 C          59.0450   89.8874    6.2858 C.3     1  UNL1        0.1109
     12 N          59.6580   88.7891    7.1030 N.am    1  UNL1       -0.2992
     13 C          60.0449   89.0424    8.5299 C.2     1  UNL1        0.2459
     14 O          59.8187   90.3941    9.1396 O.2     1  UNL1       -0.2701
     15 H          59.8065   87.9019    6.7028 H       1  UNL1        0.1498
     16 C          64.0467   82.5711   11.9735 C.3     1  UNL1        0.1415
     17 C          64.6597   81.4728   12.7907 C.3     1  UNL1        0.0401
     18 O          64.3714   81.8179   10.7176 O.3     1  UNL1       -0.3771
     19 H          65.0518   82.2975   10.2196 H       1  UNL1        0.2112
     20 C          63.7220   83.3244   13.2293 C.ar    1  UNL1        0.0859
     21 C          64.4171   84.5590   13.7215 C.ar    1  UNL1        0.1160
     22 N          63.7699   84.9729   15.0099 N.ar    1  UNL1       -0.2226
     23 C          62.6748   83.9939   15.3139 C.ar    1  UNL1        0.1784
     24 N          62.6452   82.9751   14.2134 N.ar    1  UNL1       -0.3082
     25 C          61.7040   81.8113   14.1144 C.3     1  UNL1        0.1318
@<TRIPOS>BOND
     1    11    12    1
     2    12    13   am
     3    13    14    2
     4    13     1    1
     5     1     2   ar
     6     2     3   ar
     7     3     4   ar
     8     4     5   ar
     9     5     6   ar
    10     6    16    1
    11    16    17    1
    12    16    18    1
    13    16    20    1
    14    20    21   ar
    15    21    22   ar
    16    22    23   ar
    17    23    24   ar
    18    24    25    1
    19     6     7   ar
    20     7     8   ar
    21     8     9   ar
    22     9    10   ar
    23    10     1   ar
    24     9     4   ar
    25    24    20   ar
    26    12    15    1
    27    18    19    1
@<TRIPOS>MOLECULE
*****
 25 27 0 0 0
SMALL
GASTEIGER

@<TRIPOS>ATOM
      1 C          61.7867   88.2625   10.1230 C.ar    1  UNL1        0.0534
      2 C          61.6914   89.7309    9.8320 C.ar    1  UNL1        0.0045
      3 C          62.3297   90.7222   10.7593 C.ar    1  UNL1        0.0001
      4 C          63.0631   90.2451   11.9777 C.ar    1  UNL1       -0.0002
      5 C          63.7014   91.2364   12.9050 C.ar    1  UNL1       -0.0017
      6 C          64.4348   90.7594   14.1233 C.ar    1  UNL1        0.0070
      7 C          64.5301   89.2909   14.4144 C.ar    1  UNL1       -0.0017
      8 C          63.8919   88.2996   13.4870 C.ar    1  UNL1       -0.0002
      9 C          63.1584   88.7767   12.2686 C.ar    1  UNL1        0.0001
     10 C          62.5202   87.7854   11.3413 C.ar    1  UNL1        0.0045
     11 C          59.1606   86.5651    7.6791 C.3     1  UNL1        0.1109
     12 N          59.7989   87.5564    8.6064 N.am    1  UNL1       -0.2992
     13 C          61.1485   87.2712    9.1956 C.2     1  UNL1        0.2459
     14 O          61.8598   85.9947    8.8574 O.2     1  UNL1       -0.2701
     15 H          59.3319   88.3943    8.8284 H       1  UNL1        0.1498
     16 C          65.0731   91.7507   15.0507 C.3     1  UNL1        0.1415
     17 C          65.7113   92.7420   15.9780 C.3     1  UNL1        0.0401
     18 O          63.9446   91.5686   16.0220 O.3     1  UNL1       -0.3771
     19 H          63.9809   90.6743   16.3959 H       1  UNL1        0.2112
     20 C          66.2015   91.9327   14.0794 C.ar    1  UNL1        0.0859
     21 C          66.0662   92.2629   12.6225 C.ar    1  UNL1        0.1160
     22 N          67.4445   92.3509   12.0372 N.ar    1  UNL1       -0.2226
     23 C          68.4316   92.0750   13.1324 C.ar    1  UNL1        0.1784
     24 N          67.6634   91.8166   14.3946 N.ar    1  UNL1       -0.3082
     25 C          68.2535   91.4979   15.7363 C.3     1  UNL1        0.1318
@<TRIPOS>BOND
     1    11    12    1
     2    12    13   am
     3    13    14    2
     4    13     1    1
     5     1     2   ar
     6     2     3   ar
     7     3     4   ar
     8     4     5   ar
     9     5     6   ar
    10     6    16    1
    11    16    17    1
    12    16    18    1
    13    16    20    1
    14    20    21   ar
    15    21    22   ar
    16    22    23   ar
    17    23    24   ar
    18    24    25    1
    19     6     7   ar
    20     7     8   ar
    21     8     9   ar
    22     9    10   ar
    23    10     1   ar
    24     9     4   ar
    25    24    20   ar
    26    12    15    1
    27    18    19    1
@<TRIPOS>MOLECULE
*****
 25 27 0 0 0
SMALL
GASTEIGER

@<TRIPOS>ATOM
      1 C          64.0770   89.3494   14.3354 C.ar    1  UNL1        0.0534
      2 C          63.4831   89.4356   12.9607 C.ar    1  UNL1        0.0045
      3 C          63.8371   90.5827   12.0614 C.ar    1  UNL1        0.0001
      4 C          64.7849   91.6437   12.5367 C.ar    1  UNL1       -0.0002
      5 C          65.1389   92.7908   11.6373 C.ar    1  UNL1       -0.0017
      6 C          66.0867   93.8517   12.1126 C.ar    1  UNL1        0.0070
      7 C          66.6807   93.7655   13.4874 C.ar    1  UNL1       -0.0017
      8 C          66.3267   92.6184   14.3868 C.ar    1  UNL1       -0.0002
      9 C          65.3788   91.5575   13.9114 C.ar    1  UNL1        0.0001
     10 C          65.0249   90.4103   14.8107 C.ar    1  UNL1        0.0045
     11 C          62.7958   87.3183   17.4950 C.3     1  UNL1        0.1109
     12 N          63.1498   88.4654   16.5956 N.am    1  UNL1       -0.2992
     13 C          63.7231   88.2023   15.2348 C.2     1  UNL1        0.2459
     14 O          63.9424   86.7921   14.7732 O.2     1  UNL1       -0.2701
     15 H          63.0058   89.3910   16.8986 H       1  UNL1        0.1498
     16 C          66.4407   94.9988   11.2133 C.3     1  UNL1        0.1415
     17 C          66.7946   96.1459   10.3139 C.3     1  UNL1        0.0401
     18 O          65.6516   95.9277   12.0876 O.3     1  UNL1       -0.3771
     19 H          66.0924   96.0153   12.9472 H       1  UNL1        0.2112
     20 C          67.2297   94.0699   10.3390 C.ar    1  UNL1        0.0859
     21 C          67.9420   92.8286   10.7881 C.ar    1  UNL1        0.1160
     22 N          68.5976   92.2107    9.5888 N.ar    1  UNL1       -0.2226
     23 C          68.2904   93.0701    8.3984 C.ar    1  UNL1        0.1784
     24 N          67.4450   94.2192    8.8621 N.ar    1  UNL1       -0.3082
     25 C          66.9090   95.3236    8.0001 C.3     1  UNL1        0.1318
@<TRIPOS>BOND
     1    11    12    1
     2    12    13   am
     3    13    14    2
     4    13     1    1
     5     1     2   ar
     6     2     3   ar
     7     3     4   ar
     8     4     5   ar
     9     5     6   ar
    10     6    16    1
    11    16    17    1
    12    16    18    1
    13    16    20    1
    14    20    21   ar
    15    21    22   ar
    16    22    23   ar
    17    23    24   ar
    18    24    25    1
    19     6     7   ar
    20     7     8   ar
    21     8     9   ar
    22     9    10   ar
    23    10     1   ar
    24     9     4   ar
    25    24    20   ar
    26    12    15    1
    27    18    19    1
@<TRIPOS>MOLECULE
*****
 25 27 0 0 0
SMALL
GASTEIGER

@<TRIPOS>ATOM
      1 C          62.9059   83.3883   12.2300 C.ar    1  UNL1        0.0534
      2 C          62.3856   84.1617   11.0548 C.ar    1  UNL1        0.0045
      3 C          62.4708   85.6593   11.0453 C.ar    1  UNL1        0.0001
      4 C          63.0764   86.3834   12.2110 C.ar    1  UNL1       -0.0002
      5 C          63.1616   87.8810   12.2015 C.ar    1  UNL1       -0.0017
      6 C          63.7672   88.6051   13.3671 C.ar    1  UNL1        0.0070
      7 C          64.2876   87.8318   14.5424 C.ar    1  UNL1       -0.0017
      8 C          64.2024   86.3342   14.5519 C.ar    1  UNL1       -0.0002
      9 C          63.5967   85.6100   13.3861 C.ar    1  UNL1        0.0001
     10 C          63.5115   84.1125   13.3956 C.ar    1  UNL1        0.0045
     11 C          62.3548   79.6717   13.5077 C.3     1  UNL1        0.1109
     12 N          62.4401   81.1692   13.4982 N.am    1  UNL1       -0.2992
     13 C          62.8207   81.8908   12.2395 C.2     1  UNL1        0.2459
     14 O          63.1162   81.1148   10.9903 O.2     1  UNL1       -0.2701
     15 H          62.2461   81.6785   14.3181 H       1  UNL1        0.1498
     16 C          63.8524   90.1027   13.3576 C.3     1  UNL1        0.1415
     17 C          63.9376   91.6002   13.3481 C.3     1  UNL1        0.0401
     18 O          65.1192   90.0357   14.1580 O.3     1  UNL1       -0.3771
     19 H          65.8238   89.6472   13.6162 H       1  UNL1        0.2112
     20 C          62.5855   90.1697   12.5572 C.ar    1  UNL1        0.0859
     21 C          61.2268   89.7335   13.0191 C.ar    1  UNL1        0.1160
     22 N          60.2565   89.9789   11.9018 N.ar    1  UNL1       -0.2226
     23 C          61.0157   90.5667   10.7494 C.ar    1  UNL1        0.1784
     24 N          62.4552   90.6847   11.1545 N.ar    1  UNL1       -0.3082
     25 C          63.5686   91.2231   10.3058 C.3     1  UNL1        0.1318
@<TRIPOS>BOND
     1    11    12    1
     2    12    13   am
     3    13    14    2
     4    13     1    1
     5     1     2   ar
     6     2     3   ar
     7     3     4   ar
     8     4     5   ar
     9     5     6   ar
    10     6    16    1
    11    16    17    1
    12    16    18    1
    13    16    20    1
    14    20    21   ar
    15    21    22   ar
    16    22    23   ar
    17    23    24   ar
    18    24    25    1
    19     6     7   ar
    20     7     8   ar
    21     8     9   ar
    22     9    10   ar
    23    10     1   ar
    24     9     4   ar
    25    24    20   ar
    26    12    15    1
    27    18    19    1
@<TRIPOS>MOLECULE
*****
 25 27 0 0 0
SMALL
GASTEIGER

@<TRIPOS>ATOM
      1 C          61.9287   87.0145    9.8942 C.ar    1  UNL1        0.0534
      2 C          62.3852   86.2859   11.1233 C.ar    1  UNL1        0.0045
      3 C          62.9981   87.0465   12.2617 C.ar    1  UNL1        0.0001
      4 C          63.1544   88.5355   12.1710 C.ar    1  UNL1       -0.0002
      5 C          63.7673   89.2960   13.3094 C.ar    1  UNL1       -0.0017
      6 C          63.9237   90.7851   13.2187 C.ar    1  UNL1        0.0070
      7 C          63.4671   91.5137   11.9895 C.ar    1  UNL1       -0.0017
      8 C          62.8542   90.7531   10.8511 C.ar    1  UNL1       -0.0002
      9 C          62.6979   89.2640   10.9419 C.ar    1  UNL1        0.0001
     10 C          62.0850   88.5035    9.8035 C.ar    1  UNL1        0.0045
     11 C          61.5727   84.6848    6.7011 C.3     1  UNL1        0.1109
     12 N          62.1856   85.4453    7.8395 N.am    1  UNL1       -0.2992
     13 C          61.3158   86.2539    8.7558 C.2     1  UNL1        0.2459
     14 O          59.8332   86.3020    8.5336 O.2     1  UNL1       -0.2701
     15 H          63.1587   85.4138    7.9853 H       1  UNL1        0.1498
     16 C          64.5365   91.5456   14.3571 C.3     1  UNL1        0.1415
     17 C          65.1494   92.3061   15.4955 C.3     1  UNL1        0.0401
     18 O          63.3535   91.2120   15.2169 O.3     1  UNL1       -0.3771
     19 H          63.3470   90.2599   15.4026 H       1  UNL1        0.2112
     20 C          65.7196   91.8792   13.4974 C.ar    1  UNL1        0.0859
     21 C          65.6709   92.5048   12.1350 C.ar    1  UNL1        0.1160
     22 N          67.0802   92.6580   11.6447 N.ar    1  UNL1       -0.2226
     23 C          67.9998   92.1270   12.7041 C.ar    1  UNL1        0.1784
     24 N          67.1588   91.6457   13.8491 N.ar    1  UNL1       -0.3082
     25 C          67.6679   91.0377   15.1224 C.3     1  UNL1        0.1318
@<TRIPOS>BOND
     1    11    12    1
     2    12    13   am
     3    13    14    2
     4    13     1    1
     5     1     2   ar
     6     2     3   ar
     7     3     4   ar
     8     4     5   ar
     9     5     6   ar
    10     6    16    1
    11    16    17    1
    12    16    18    1
    13    16    20    1
    14    20    21   ar
    15    21    22   ar
    16    22    23   ar
    17    23    24   ar
    18    24    25    1
    19     6     7   ar
    20     7     8   ar
    21     8     9   ar
    22     9    10   ar
    23    10     1   ar
    24     9     4   ar
    25    24    20   ar
    26    12    15    1
    27    18    19    1
@<TRIPOS>MOLECULE
*****
 25 27 0 0 0
SMALL
GASTEIGER

@<TRIPOS>ATOM
      1 C          63.0817   83.6504   13.2008 C.ar    1  UNL1        0.0534
      2 C          62.4119   84.0454   11.9181 C.ar    1  UNL1        0.0045
      3 C          62.3855   85.4852   11.4982 C.ar    1  UNL1        0.0001
      4 C          63.0290   86.5299   12.3609 C.ar    1  UNL1       -0.0002
      5 C          63.0027   87.9697   11.9409 C.ar    1  UNL1       -0.0017
      6 C          63.6462   89.0145   12.8037 C.ar    1  UNL1        0.0070
      7 C          64.3161   88.6195   14.0864 C.ar    1  UNL1       -0.0017
      8 C          64.3424   87.1797   14.5063 C.ar    1  UNL1       -0.0002
      9 C          63.6989   86.1349   13.6435 C.ar    1  UNL1        0.0001
     10 C          63.7252   84.6952   14.0635 C.ar    1  UNL1        0.0045
     11 C          62.1948   79.7877   13.4078 C.3     1  UNL1        0.1109
     12 N          62.1685   81.2275   12.9879 N.am    1  UNL1       -0.2992
     13 C          63.1081   82.2106   13.6207 C.2     1  UNL1        0.2459
     14 O          64.0741   81.7540   14.6734 O.2     1  UNL1       -0.2701
     15 H          61.5344   81.5272   12.2969 H       1  UNL1        0.1498
     16 C          63.6198   90.4543   12.3837 C.3     1  UNL1        0.1415
     17 C          63.5935   91.8940   11.9638 C.3     1  UNL1        0.0401
     18 O          63.2332   90.0419   10.9943 O.3     1  UNL1       -0.3771
     19 H          62.3375   89.6698   11.0049 H       1  UNL1        0.2112
     20 C          64.0064   90.8666   13.7731 C.ar    1  UNL1        0.0859
     21 C          63.1756   90.6879   15.0091 C.ar    1  UNL1        0.1160
     22 N          63.9474   91.2409   16.1704 N.ar    1  UNL1       -0.2226
     23 C          65.2553   91.7613   15.6520 C.ar    1  UNL1        0.1784
     24 N          65.2917   91.5300   14.1704 N.ar    1  UNL1       -0.3082
     25 C          66.4161   91.8976   13.2481 C.3     1  UNL1        0.1318
@<TRIPOS>BOND
     1    11    12    1
     2    12    13   am
     3    13    14    2
     4    13     1    1
     5     1     2   ar
     6     2     3   ar
     7     3     4   ar
     8     4     5   ar
     9     5     6   ar
    10     6    16    1
    11    16    17    1
    12    16    18    1
    13    16    20    1
    14    20    21   ar
    15    21    22   ar
    16    22    23   ar
    17    23    24   ar
    18    24    25    1
    19     6     7   ar
    20     7     8   ar
    21     8     9   ar
    22     9    10   ar
    23    10     1   ar
    24     9     4   ar
    25    24    20   ar
    26    12    15    1
    27    18    19    1
