@<TRIPOS>MOLECULE
*****
 36 39 0 0 0
SMALL
GASTEIGER

@<TRIPOS>ATOM
      1 N          63.0231   90.8448   11.7299 N.am    1  UNL1       -0.2438
      2 C          63.5389   91.4806   10.4730 C.3     1  UNL1        0.1009
      3 C          64.7249   92.3972   10.5282 C.3     1  UNL1        0.0662
      4 C          65.3953   92.6780   11.8404 C.3     1  UNL1        0.1600
      5 O          64.8796   92.0423   13.0973 O.3     1  UNL1       -0.4374
      6 C          63.6935   91.1256   13.0421 C.2     1  UNL1        0.4051
      7 O          63.1778   90.4899   14.2990 O.2     1  UNL1       -0.2262
      8 C          66.2464   93.5119   10.9293 C.ar    1  UNL1        0.0138
      9 C          67.1596   92.8491    9.9410 C.ar    1  UNL1       -0.0010
     10 C          68.0108   93.6830    9.0298 C.ar    1  UNL1       -0.0002
     11 C          67.9487   95.1797    9.1071 C.ar    1  UNL1       -0.0000
     12 C          67.0356   95.8425   10.0954 C.ar    1  UNL1       -0.0002
     13 C          66.1844   95.0087   11.0065 C.ar    1  UNL1       -0.0010
     14 C          61.8371   89.9282   11.6747 C.3     1  UNL1        0.1011
     15 C          60.4501   90.4979   11.6353 C.3     1  UNL1        0.0265
     16 C          62.4400   85.4690   11.6272 C.ar    1  UNL1        0.0014
     17 C          61.3513   86.0875   10.8012 C.ar    1  UNL1       -0.0002
     18 C          61.1504   87.5738   10.8170 C.ar    1  UNL1       -0.0027
     19 C          62.0381   88.4418   11.6589 C.ar    1  UNL1       -0.0042
     20 C          63.1267   87.8233   12.4849 C.ar    1  UNL1       -0.0027
     21 C          63.3277   86.3369   12.4691 C.ar    1  UNL1       -0.0002
     22 N          62.3460   81.6601   12.7380 N.ar    1  UNL1       -0.2942
     23 C          62.1451   83.1465   12.7538 C.ar    1  UNL1        0.0783
     24 C          62.6409   83.9826   11.6114 C.ar    1  UNL1        0.0175
     25 C          63.3377   83.3322   10.4532 C.ar    1  UNL1        0.0064
     26 C          63.5387   81.8459   10.4373 C.ar    1  UNL1        0.0608
     27 C          63.0428   81.0098   11.5798 C.ar    1  UNL1        0.2610
     28 O          63.2437   79.5234   11.5639 O.2     1  UNL1       -0.2670
     29 C          60.3770   80.6968   14.1326 C.3     1  UNL1        0.0266
     30 C          61.8501   80.8241   13.8804 C.3     1  UNL1        0.1092
     31 C          66.3612   93.2485   12.8361 C.3     1  UNL1        0.0714
     32 C          67.0193   92.3509   13.8417 C.3     1  UNL1        0.0922
     33 C          67.7906   91.6839   12.7416 C.3     1  UNL1        0.0294
     34 C          66.2481   93.0178   14.9419 C.3     1  UNL1        0.0294
     35 O          67.6775   91.4533   14.8474 O.3     1  UNL1       -0.3866
     36 H          68.2896   90.8532   14.3934 H       1  UNL1        0.2102
@<TRIPOS>BOND
     1    29    30    1
     2    30    22    1
     3    22    23   ar
     4    23    24   ar
     5    24    16    1
     6    16    17   ar
     7    17    18   ar
     8    18    19   ar
     9    19    14    1
    10    14    15    1
    11    14     1    1
    12     1     2    1
    13     2     3    1
    14     3     4    1
    15     4    31    1
    16    31    32    1
    17    32    33    1
    18    32    34    1
    19    32    35    1
    20     4     8    1
    21     8     9   ar
    22     9    10   ar
    23    10    11   ar
    24    11    12   ar
    25    12    13   ar
    26     4     5    1
    27     5     6    1
    28     6     7    2
    29    19    20   ar
    30    20    21   ar
    31    24    25   ar
    32    25    26   ar
    33    26    27   ar
    34    27    28    2
    35    27    22   ar
    36    21    16   ar
    37     6     1   am
    38    13     8   ar
    39    35    36    1
@<TRIPOS>MOLECULE
*****
 36 39 0 0 0
SMALL
GASTEIGER

@<TRIPOS>ATOM
      1 N          63.4365   90.5126   11.9726 N.am    1  UNL1       -0.2438
      2 C          64.1116   90.3098   13.2967 C.3     1  UNL1        0.1009
      3 C          65.3020   91.1439   13.6672 C.3     1  UNL1        0.0662
      4 C          65.8174   92.1807   12.7136 C.3     1  UNL1        0.1600
      5 O          65.1424   92.3835   11.3896 O.3     1  UNL1       -0.4374
      6 C          63.9519   91.5494   11.0190 C.2     1  UNL1        0.4051
      7 O          63.2770   91.7522    9.6949 O.2     1  UNL1       -0.2262
      8 C          66.7885   92.3596   13.8428 C.ar    1  UNL1        0.0138
      9 C          68.2420   92.0510   13.6379 C.ar    1  UNL1       -0.0010
     10 C          69.2131   92.2299   14.7671 C.ar    1  UNL1       -0.0002
     11 C          68.7306   92.7173   16.1011 C.ar    1  UNL1       -0.0000
     12 C          67.2771   93.0259   16.3060 C.ar    1  UNL1       -0.0002
     13 C          66.3060   92.8470   15.1768 C.ar    1  UNL1       -0.0010
     14 C          62.2462   89.6785   11.6021 C.3     1  UNL1        0.1011
     15 C          60.9445   90.3401   11.2583 C.3     1  UNL1        0.0265
     16 C          62.5799   85.1917   11.5219 C.ar    1  UNL1        0.0014
     17 C          63.2408   85.9734   12.6183 C.ar    1  UNL1       -0.0002
     18 C          63.1296   87.4690   12.6450 C.ar    1  UNL1       -0.0027
     19 C          62.3574   88.1829   11.5754 C.ar    1  UNL1       -0.0042
     20 C          61.6964   87.4012   10.4790 C.ar    1  UNL1       -0.0027
     21 C          61.8077   85.9055   10.4523 C.ar    1  UNL1       -0.0002
     22 N          62.3206   81.3915   12.6364 N.ar    1  UNL1       -0.2942
     23 C          62.2094   82.8871   12.6630 C.ar    1  UNL1        0.0783
     24 C          62.6911   83.6960   11.4952 C.ar    1  UNL1        0.0175
     25 C          63.2841   83.0092   10.3008 C.ar    1  UNL1        0.0064
     26 C          63.3953   81.5136   10.2742 C.ar    1  UNL1        0.0608
     27 C          62.9136   80.7048   11.4420 C.ar    1  UNL1        0.2610
     28 O          63.0248   79.2091   11.4153 O.2     1  UNL1       -0.2670
     29 C          60.3882   80.6056   14.1850 C.3     1  UNL1        0.0266
     30 C          61.8389   80.5827   13.8042 C.3     1  UNL1        0.1092
     31 C          66.6700   93.2796   12.1522 C.3     1  UNL1        0.0714
     32 C          66.5784   93.6309   10.6968 C.3     1  UNL1        0.0922
     33 C          65.7870   94.8573   11.0426 C.3     1  UNL1        0.0294
     34 C          67.3697   92.4045   10.3509 C.3     1  UNL1        0.0294
     35 O          66.4867   93.9821    9.2413 O.3     1  UNL1       -0.3866
     36 H          65.9845   94.8056    9.1384 H       1  UNL1        0.2102
@<TRIPOS>BOND
     1    29    30    1
     2    30    22    1
     3    22    23   ar
     4    23    24   ar
     5    24    16    1
     6    16    17   ar
     7    17    18   ar
     8    18    19   ar
     9    19    14    1
    10    14    15    1
    11    14     1    1
    12     1     2    1
    13     2     3    1
    14     3     4    1
    15     4    31    1
    16    31    32    1
    17    32    33    1
    18    32    34    1
    19    32    35    1
    20     4     8    1
    21     8     9   ar
    22     9    10   ar
    23    10    11   ar
    24    11    12   ar
    25    12    13   ar
    26     4     5    1
    27     5     6    1
    28     6     7    2
    29    19    20   ar
    30    20    21   ar
    31    24    25   ar
    32    25    26   ar
    33    26    27   ar
    34    27    28    2
    35    27    22   ar
    36    21    16   ar
    37     6     1   am
    38    13     8   ar
    39    35    36    1
@<TRIPOS>MOLECULE
*****
 36 39 0 0 0
SMALL
GASTEIGER

@<TRIPOS>ATOM
      1 N          63.0355   90.8631   11.5875 N.am    1  UNL1       -0.2438
      2 C          63.5954   91.5002   10.3503 C.3     1  UNL1        0.1009
      3 C          64.7732   92.4238   10.4496 C.3     1  UNL1        0.0662
      4 C          65.3911   92.7102   11.7861 C.3     1  UNL1        0.1600
      5 O          64.8312   92.0731   13.0233 O.3     1  UNL1       -0.4374
      6 C          63.6534   91.1495   12.9240 C.2     1  UNL1        0.4051
      7 O          63.0935   90.5124   14.1611 O.2     1  UNL1       -0.2262
      8 C          66.2718   93.5478   10.9070 C.ar    1  UNL1        0.0138
      9 C          67.2219   92.8890    9.9515 C.ar    1  UNL1       -0.0010
     10 C          68.1026   93.7267    9.0723 C.ar    1  UNL1       -0.0002
     11 C          68.0331   95.2231    9.1490 C.ar    1  UNL1       -0.0000
     12 C          67.0830   95.8819   10.1045 C.ar    1  UNL1       -0.0002
     13 C          66.2023   95.0443   10.9836 C.ar    1  UNL1       -0.0010
     14 C          61.8577   89.9396   11.4882 C.3     1  UNL1        0.1011
     15 C          60.4951   90.4912   11.1898 C.3     1  UNL1        0.0265
     16 C          62.4122   85.5140   12.0853 C.ar    1  UNL1        0.0014
     17 C          61.3088   86.0194   11.2038 C.ar    1  UNL1       -0.0002
     18 C          61.1240   87.4946   11.0047 C.ar    1  UNL1       -0.0027
     19 C          62.0425   88.4644   11.6872 C.ar    1  UNL1       -0.0042
     20 C          63.1459   87.9590   12.5688 C.ar    1  UNL1       -0.0027
     21 C          63.3307   86.4837   12.7678 C.ar    1  UNL1       -0.0002
     22 N          63.1421   81.6890   11.3191 N.ar    1  UNL1       -0.2942
     23 C          62.9573   83.1642   11.1201 C.ar    1  UNL1        0.0783
     24 C          62.5970   84.0387   12.2844 C.ar    1  UNL1        0.0175
     25 C          62.4214   83.4380   13.6475 C.ar    1  UNL1        0.0064
     26 C          62.6062   81.9628   13.8465 C.ar    1  UNL1        0.0608
     27 C          62.9666   81.0883   12.6823 C.ar    1  UNL1        0.2610
     28 O          63.1514   79.6131   12.8813 O.2     1  UNL1       -0.2670
     29 C          62.6667   79.6111    9.8339 C.3     1  UNL1        0.0266
     30 C          63.5025   80.8145   10.1549 C.3     1  UNL1        0.1092
     31 C          66.3148   93.2875   12.8173 C.3     1  UNL1        0.0714
     32 C          66.8999   92.4039   13.8788 C.3     1  UNL1        0.0922
     33 C          67.7008   91.6817   12.8362 C.3     1  UNL1        0.0294
     34 C          66.0991   93.1260   14.9215 C.3     1  UNL1        0.0294
     35 O          67.4851   91.5202   14.9404 O.3     1  UNL1       -0.3866
     36 H          68.0995   90.8895   14.5335 H       1  UNL1        0.2102
@<TRIPOS>BOND
     1    29    30    1
     2    30    22    1
     3    22    23   ar
     4    23    24   ar
     5    24    16    1
     6    16    17   ar
     7    17    18   ar
     8    18    19   ar
     9    19    14    1
    10    14    15    1
    11    14     1    1
    12     1     2    1
    13     2     3    1
    14     3     4    1
    15     4    31    1
    16    31    32    1
    17    32    33    1
    18    32    34    1
    19    32    35    1
    20     4     8    1
    21     8     9   ar
    22     9    10   ar
    23    10    11   ar
    24    11    12   ar
    25    12    13   ar
    26     4     5    1
    27     5     6    1
    28     6     7    2
    29    19    20   ar
    30    20    21   ar
    31    24    25   ar
    32    25    26   ar
    33    26    27   ar
    34    27    28    2
    35    27    22   ar
    36    21    16   ar
    37     6     1   am
    38    13     8   ar
    39    35    36    1
