@<TRIPOS>MOLECULE
*****
 28 32 0 0 0
SMALL
GASTEIGER

@<TRIPOS>ATOM
      1 C          66.0972   94.3054   11.5335 C.ar    1  UNL1        0.0294
      2 C          66.5020   94.3072   12.9778 C.ar    1  UNL1        0.0025
      3 C          66.0722   93.1874   13.8785 C.ar    1  UNL1       -0.0044
      4 C          65.2376   92.0658   13.3349 C.ar    1  UNL1       -0.0239
      5 C          64.8328   92.0641   11.8905 C.ar    1  UNL1        0.0005
      6 C          65.2626   93.1839   10.9898 C.ar    1  UNL1        0.0006
      7 C          63.9982   90.9425   11.3469 C.3     1  UNL1        0.1345
      8 O          63.5934   90.9408    9.9025 O.3     1  UNL1       -0.3800
      9 C          63.5684   89.8226   12.2476 C.3     1  UNL1        0.0565
     10 C          63.9733   89.8244   13.6919 C.3     1  UNL1        0.0096
     11 C          64.8079   90.9460   14.2355 C.3     1  UNL1        0.0263
     12 H          63.0611   90.1515    9.7169 H       1  UNL1        0.2108
     13 C          62.7338   88.7011   11.7039 C.3     1  UNL1        0.1121
     14 C          62.8562   87.2522   12.0725 C.ar    1  UNL1       -0.0002
     15 C          63.7708   86.5307   13.0175 C.ar    1  UNL1       -0.0024
     16 C          63.6575   85.0442   13.1826 C.ar    1  UNL1       -0.0003
     17 C          62.6297   84.2791   12.4027 C.ar    1  UNL1        0.0000
     18 C          61.7151   85.0006   11.4577 C.ar    1  UNL1        0.0012
     19 C          61.8284   86.4871   11.2926 C.ar    1  UNL1        0.0152
     20 C          61.0708   87.4632   10.4421 C.ar    1  UNL1        0.0804
     21 C          59.9673   87.5935    9.4344 C.ar    1  UNL1        0.1177
     22 N          59.8450   89.0424    9.0659 N.ar    1  UNL1       -0.2223
     23 C          60.8728   89.8075    9.8457 C.ar    1  UNL1        0.1788
     24 N          61.6304   88.8315   10.6963 N.ar    1  UNL1       -0.3069
     25 C          67.0332   94.4275    9.6337 C.3     1  UNL1        0.0720
     26 P          66.5270   95.4253   10.6327 P.3     1  UNL1        0.1353
     27 C          66.0207   96.4231   11.6318 C.3     1  UNL1        0.0720
     28 O          66.9567   96.5452    9.7321 O.2     1  UNL1       -0.3149
@<TRIPOS>BOND
     1    25    26    1
     2    26    27    1
     3    26    28    2
     4    26     1    1
     5     1     2   ar
     6     2     3   ar
     7     3     4   ar
     8     4     5   ar
     9     5     6   ar
    10     5     7    1
    11     7     8    1
    12     7     9    1
    13     9    13    1
    14    13    14    1
    15    14    15   ar
    16    15    16   ar
    17    16    17   ar
    18    17    18   ar
    19    18    19   ar
    20    19    20    1
    21    20    21   ar
    22    21    22   ar
    23    22    23   ar
    24    23    24   ar
    25     9    10    1
    26    10    11    1
    27     6     1   ar
    28    13    24    1
    29    11     4    1
    30    19    14   ar
    31    24    20   ar
    32     8    12    1
@<TRIPOS>MOLECULE
*****
 28 32 0 0 0
SMALL
GASTEIGER

@<TRIPOS>ATOM
      1 C          62.8457   84.0582   12.4240 C.ar    1  UNL1        0.0294
      2 C          62.0108   84.2237   11.1889 C.ar    1  UNL1        0.0025
      3 C          61.7631   85.5930   10.6289 C.ar    1  UNL1       -0.0044
      4 C          62.3504   86.7969   11.3041 C.ar    1  UNL1       -0.0239
      5 C          63.1853   86.6314   12.5391 C.ar    1  UNL1        0.0005
      6 C          63.4331   85.2621   13.0991 C.ar    1  UNL1        0.0006
      7 C          63.7727   87.8352   13.2143 C.3     1  UNL1        0.1345
      8 O          64.6076   87.6697   14.4494 O.3     1  UNL1       -0.3800
      9 C          63.5250   89.2046   12.6543 C.3     1  UNL1        0.0565
     10 C          62.6900   89.3701   11.4193 C.3     1  UNL1        0.0096
     11 C          62.1027   88.1662   10.7441 C.3     1  UNL1        0.0263
     12 H          64.9072   88.5398   14.7561 H       1  UNL1        0.2108
     13 C          64.1123   90.4085   13.3295 C.3     1  UNL1        0.1121
     14 C          64.9060   91.4932   12.6636 C.ar    1  UNL1       -0.0002
     15 C          65.3261   91.6989   11.2384 C.ar    1  UNL1       -0.0024
     16 C          66.1335   92.9054   10.8613 C.ar    1  UNL1       -0.0003
     17 C          66.5208   93.9063   11.9092 C.ar    1  UNL1        0.0000
     18 C          66.1006   93.7007   13.3344 C.ar    1  UNL1        0.0012
     19 C          65.2933   92.4941   13.7116 C.ar    1  UNL1        0.0152
     20 C          64.7389   92.0279   15.0251 C.ar    1  UNL1        0.0804
     21 C          64.6356   92.3584   16.4847 C.ar    1  UNL1        0.1177
     22 N          63.8418   91.2736   17.1505 N.ar    1  UNL1       -0.2223
     23 C          63.4546   90.2727   16.1025 C.ar    1  UNL1        0.1788
     24 N          64.0090   90.7389   14.7890 N.ar    1  UNL1       -0.3069
     25 C          63.5694   82.2250   11.6392 C.3     1  UNL1        0.0720
     26 P          63.0934   82.6888   12.9839 P.3     1  UNL1        0.1353
     27 C          62.6175   83.1526   14.3286 C.3     1  UNL1        0.0720
     28 O          63.3411   81.3195   13.5439 O.2     1  UNL1       -0.3149
@<TRIPOS>BOND
     1    25    26    1
     2    26    27    1
     3    26    28    2
     4    26     1    1
     5     1     2   ar
     6     2     3   ar
     7     3     4   ar
     8     4     5   ar
     9     5     6   ar
    10     5     7    1
    11     7     8    1
    12     7     9    1
    13     9    13    1
    14    13    14    1
    15    14    15   ar
    16    15    16   ar
    17    16    17   ar
    18    17    18   ar
    19    18    19   ar
    20    19    20    1
    21    20    21   ar
    22    21    22   ar
    23    22    23   ar
    24    23    24   ar
    25     9    10    1
    26    10    11    1
    27     6     1   ar
    28    13    24    1
    29    11     4    1
    30    19    14   ar
    31    24    20   ar
    32     8    12    1
@<TRIPOS>MOLECULE
*****
 28 32 0 0 0
SMALL
GASTEIGER

@<TRIPOS>ATOM
      1 C          66.0342   94.1630   11.6404 C.ar    1  UNL1        0.0294
      2 C          66.3993   94.1981   13.0949 C.ar    1  UNL1        0.0025
      3 C          65.9791   93.0790   14.0009 C.ar    1  UNL1       -0.0044
      4 C          65.1937   91.9247   13.4525 C.ar    1  UNL1       -0.0239
      5 C          64.8286   91.8896   11.9981 C.ar    1  UNL1        0.0005
      6 C          65.2488   93.0087   11.0920 C.ar    1  UNL1        0.0006
      7 C          64.0432   90.7353   11.4496 C.3     1  UNL1        0.1345
      8 O          63.6780   90.7002    9.9952 O.3     1  UNL1       -0.3800
      9 C          63.6229   89.6161   12.3557 C.3     1  UNL1        0.0565
     10 C          63.9881   89.6513   13.8101 C.3     1  UNL1        0.0096
     11 C          64.7735   90.8056   14.3585 C.3     1  UNL1        0.0263
     12 H          63.1749   89.8923    9.8076 H       1  UNL1        0.2108
     13 C          62.8375   88.4618   11.8073 C.3     1  UNL1        0.1121
     14 C          61.7726   88.5412   10.7539 C.ar    1  UNL1       -0.0002
     15 C          61.2064   89.6974    9.9842 C.ar    1  UNL1       -0.0024
     16 C          60.1238   89.4665    8.9721 C.ar    1  UNL1       -0.0003
     17 C          59.6073   88.0792    8.7297 C.ar    1  UNL1        0.0000
     18 C          60.1734   86.9230    9.4994 C.ar    1  UNL1        0.0012
     19 C          61.2560   87.1540   10.5115 C.ar    1  UNL1        0.0152
     20 C          62.0018   86.2172   11.4151 C.ar    1  UNL1        0.0804
     21 C          62.1434   84.7808   11.8237 C.ar    1  UNL1        0.1177
     22 N          63.2085   84.7015   12.8770 N.ar    1  UNL1       -0.2223
     23 C          63.7250   86.0888   13.1194 C.ar    1  UNL1        0.1788
     24 N          62.9792   87.0255   12.2159 N.ar    1  UNL1       -0.3069
     25 C          66.8718   94.2842    9.6952 C.3     1  UNL1        0.0720
     26 P          66.4544   95.2822   10.7344 P.3     1  UNL1        0.1353
     27 C          66.0370   96.2801   11.7735 C.3     1  UNL1        0.0720
     28 O          66.8746   96.4014    9.8284 O.2     1  UNL1       -0.3149
@<TRIPOS>BOND
     1    25    26    1
     2    26    27    1
     3    26    28    2
     4    26     1    1
     5     1     2   ar
     6     2     3   ar
     7     3     4   ar
     8     4     5   ar
     9     5     6   ar
    10     5     7    1
    11     7     8    1
    12     7     9    1
    13     9    13    1
    14    13    14    1
    15    14    15   ar
    16    15    16   ar
    17    16    17   ar
    18    17    18   ar
    19    18    19   ar
    20    19    20    1
    21    20    21   ar
    22    21    22   ar
    23    22    23   ar
    24    23    24   ar
    25     9    10    1
    26    10    11    1
    27     6     1   ar
    28    13    24    1
    29    11     4    1
    30    19    14   ar
    31    24    20   ar
    32     8    12    1
@<TRIPOS>MOLECULE
*****
 28 32 0 0 0
SMALL
GASTEIGER

@<TRIPOS>ATOM
      1 C          64.9800   91.2142   14.2643 C.ar    1  UNL1        0.0294
      2 C          64.2811   91.8955   13.1253 C.ar    1  UNL1        0.0025
      3 C          63.4737   91.0900   12.1510 C.ar    1  UNL1       -0.0044
      4 C          63.3653   89.6030   12.3158 C.ar    1  UNL1       -0.0239
      5 C          64.0642   88.9216   13.4548 C.ar    1  UNL1        0.0005
      6 C          64.8716   89.7272   14.4290 C.ar    1  UNL1        0.0006
      7 C          63.9557   87.4347   13.6196 C.3     1  UNL1        0.1345
      8 O          64.6546   86.7533   14.7586 O.3     1  UNL1       -0.3800
      9 C          63.1483   86.6290   12.6453 C.3     1  UNL1        0.0565
     10 C          62.4495   87.3104   11.5064 C.3     1  UNL1        0.0096
     11 C          62.5579   88.7973   11.3416 C.3     1  UNL1        0.0263
     12 H          64.4829   85.7994   14.7191 H       1  UNL1        0.2108
     13 C          63.0398   85.1420   12.8101 C.3     1  UNL1        0.1121
     14 C          63.2775   84.1169   11.7411 C.ar    1  UNL1       -0.0002
     15 C          63.6645   84.2433   10.2975 C.ar    1  UNL1       -0.0024
     16 C          63.8332   83.0133    9.4558 C.ar    1  UNL1       -0.0003
     17 C          63.6149   81.6568   10.0577 C.ar    1  UNL1        0.0000
     18 C          63.2279   81.5304   11.5014 C.ar    1  UNL1        0.0012
     19 C          63.0592   82.7604   12.3431 C.ar    1  UNL1        0.0152
     20 C          62.6867   82.9472   13.7840 C.ar    1  UNL1        0.0804
     21 C          62.3215   82.2243   15.0467 C.ar    1  UNL1        0.1177
     22 N          62.0838   83.2495   16.1156 N.ar    1  UNL1       -0.2223
     23 C          62.3021   84.6060   15.5136 C.ar    1  UNL1        0.1788
     24 N          62.6747   84.4192   14.0727 N.ar    1  UNL1       -0.3069
     25 C          66.9234   92.0648   14.2600 C.3     1  UNL1        0.0720
     26 P          65.7874   92.0198   15.2385 P.3     1  UNL1        0.1353
     27 C          64.6515   91.9748   16.2171 C.3     1  UNL1        0.0720
     28 O          66.5947   92.8254   16.2128 O.2     1  UNL1       -0.3149
@<TRIPOS>BOND
     1    25    26    1
     2    26    27    1
     3    26    28    2
     4    26     1    1
     5     1     2   ar
     6     2     3   ar
     7     3     4   ar
     8     4     5   ar
     9     5     6   ar
    10     5     7    1
    11     7     8    1
    12     7     9    1
    13     9    13    1
    14    13    14    1
    15    14    15   ar
    16    15    16   ar
    17    16    17   ar
    18    17    18   ar
    19    18    19   ar
    20    19    20    1
    21    20    21   ar
    22    21    22   ar
    23    22    23   ar
    24    23    24   ar
    25     9    10    1
    26    10    11    1
    27     6     1   ar
    28    13    24    1
    29    11     4    1
    30    19    14   ar
    31    24    20   ar
    32     8    12    1
@<TRIPOS>MOLECULE
*****
 28 32 0 0 0
SMALL
GASTEIGER

@<TRIPOS>ATOM
      1 C          60.3069   87.7455    8.9250 C.ar    1  UNL1        0.0294
      2 C          60.5647   86.3319    9.3556 C.ar    1  UNL1        0.0025
      3 C          61.4937   86.0541   10.5000 C.ar    1  UNL1       -0.0044
      4 C          62.1649   87.1899   11.2138 C.ar    1  UNL1       -0.0239
      5 C          61.9071   88.6034   10.7832 C.ar    1  UNL1        0.0005
      6 C          60.9781   88.8812    9.6388 C.ar    1  UNL1        0.0006
      7 C          62.5782   89.7392   11.4971 C.3     1  UNL1        0.1345
      8 O          62.3204   91.1527   11.0665 O.3     1  UNL1       -0.3800
      9 C          63.5073   89.4614   12.6416 C.3     1  UNL1        0.0565
     10 C          63.7651   88.0479   13.0721 C.3     1  UNL1        0.0096
     11 C          63.0939   86.9121   12.3583 C.3     1  UNL1        0.0263
     12 H          62.8281   91.7594   11.6278 H       1  UNL1        0.2108
     13 C          64.1785   90.5971   13.3554 C.3     1  UNL1        0.1121
     14 C          65.0219   91.6624   12.7200 C.ar    1  UNL1       -0.0002
     15 C          65.4252   91.9071   11.2961 C.ar    1  UNL1       -0.0024
     16 C          66.2953   93.0801   10.9541 C.ar    1  UNL1       -0.0003
     17 C          66.7621   94.0083   12.0359 C.ar    1  UNL1        0.0000
     18 C          66.3589   93.7636   13.4598 C.ar    1  UNL1        0.0012
     19 C          65.4888   92.5907   13.8018 C.ar    1  UNL1        0.0152
     20 C          64.9338   92.0991   15.1058 C.ar    1  UNL1        0.0804
     21 C          64.8794   92.3690   16.5804 C.ar    1  UNL1        0.1177
     22 N          64.0359   91.3037   17.2157 N.ar    1  UNL1       -0.2223
     23 C          63.5690   90.3754   16.1339 C.ar    1  UNL1        0.1788
     24 N          64.1240   90.8670   14.8299 N.ar    1  UNL1       -0.3069
     25 C          58.9700   86.5799    7.7612 C.3     1  UNL1        0.0720
     26 P          59.3778   88.0233    7.7804 P.3     1  UNL1        0.1353
     27 C          59.7857   89.4666    7.7997 C.3     1  UNL1        0.0720
     28 O          58.4489   88.3011    6.6360 O.2     1  UNL1       -0.3149
@<TRIPOS>BOND
     1    25    26    1
     2    26    27    1
     3    26    28    2
     4    26     1    1
     5     1     2   ar
     6     2     3   ar
     7     3     4   ar
     8     4     5   ar
     9     5     6   ar
    10     5     7    1
    11     7     8    1
    12     7     9    1
    13     9    13    1
    14    13    14    1
    15    14    15   ar
    16    15    16   ar
    17    16    17   ar
    18    17    18   ar
    19    18    19   ar
    20    19    20    1
    21    20    21   ar
    22    21    22   ar
    23    22    23   ar
    24    23    24   ar
    25     9    10    1
    26    10    11    1
    27     6     1   ar
    28    13    24    1
    29    11     4    1
    30    19    14   ar
    31    24    20   ar
    32     8    12    1
@<TRIPOS>MOLECULE
*****
 28 32 0 0 0
SMALL
GASTEIGER

@<TRIPOS>ATOM
      1 C          63.1153   82.5078   13.4563 C.ar    1  UNL1        0.0294
      2 C          63.3873   82.4159   14.9285 C.ar    1  UNL1        0.0025
      3 C          63.6754   83.6590   15.7171 C.ar    1  UNL1       -0.0044
      4 C          63.6914   84.9940   15.0332 C.ar    1  UNL1       -0.0239
      5 C          63.4194   85.0858   13.5610 C.ar    1  UNL1        0.0005
      6 C          63.1314   83.8428   12.7725 C.ar    1  UNL1        0.0006
      7 C          63.4355   86.4208   12.8772 C.3     1  UNL1        0.1345
      8 O          63.1635   86.5127   11.4049 O.3     1  UNL1       -0.3800
      9 C          63.7236   87.6640   13.6657 C.3     1  UNL1        0.0565
     10 C          63.9956   87.5720   15.1379 C.3     1  UNL1        0.0096
     11 C          63.9795   86.2371   15.8217 C.3     1  UNL1        0.0263
     12 H          63.2119   87.4400   11.1244 H       1  UNL1        0.2108
     13 C          63.7396   88.9990   12.9819 C.3     1  UNL1        0.1121
     14 C          64.5936   90.1729   13.3597 C.ar    1  UNL1       -0.0002
     15 C          65.6113   90.3659   14.4446 C.ar    1  UNL1       -0.0024
     16 C          66.3217   91.6798   14.5814 C.ar    1  UNL1       -0.0003
     17 C          66.0144   92.8008   13.6332 C.ar    1  UNL1        0.0000
     18 C          64.9967   92.6078   12.5483 C.ar    1  UNL1        0.0012
     19 C          64.2863   91.2938   12.4116 C.ar    1  UNL1        0.0152
     20 C          63.2425   90.8127   11.4478 C.ar    1  UNL1        0.0804
     21 C          62.4074   91.2082   10.2661 C.ar    1  UNL1        0.1177
     22 N          61.5535   90.0343    9.8883 N.ar    1  UNL1       -0.2223
     23 C          61.8607   88.9133   10.8365 C.ar    1  UNL1        0.1788
     24 N          62.9046   89.3944   11.8003 N.ar    1  UNL1       -0.3069
     25 C          63.6055   81.8180   11.5110 C.3     1  UNL1        0.0720
     26 P          62.8272   81.2646   12.6678 P.3     1  UNL1        0.1353
     27 C          62.0490   80.7114   13.8245 C.3     1  UNL1        0.0720
     28 O          62.5391   80.0215   11.8794 O.2     1  UNL1       -0.3149
@<TRIPOS>BOND
     1    25    26    1
     2    26    27    1
     3    26    28    2
     4    26     1    1
     5     1     2   ar
     6     2     3   ar
     7     3     4   ar
     8     4     5   ar
     9     5     6   ar
    10     5     7    1
    11     7     8    1
    12     7     9    1
    13     9    13    1
    14    13    14    1
    15    14    15   ar
    16    15    16   ar
    17    16    17   ar
    18    17    18   ar
    19    18    19   ar
    20    19    20    1
    21    20    21   ar
    22    21    22   ar
    23    22    23   ar
    24    23    24   ar
    25     9    10    1
    26    10    11    1
    27     6     1   ar
    28    13    24    1
    29    11     4    1
    30    19    14   ar
    31    24    20   ar
    32     8    12    1
@<TRIPOS>MOLECULE
*****
 28 32 0 0 0
SMALL
GASTEIGER

@<TRIPOS>ATOM
      1 C          60.8190   87.9747    9.4673 C.ar    1  UNL1        0.0294
      2 C          60.9011   86.8275   10.4303 C.ar    1  UNL1        0.0025
      3 C          61.8064   86.9128   11.6231 C.ar    1  UNL1       -0.0044
      4 C          62.6297   88.1454   11.8530 C.ar    1  UNL1       -0.0239
      5 C          62.5476   89.2926   10.8901 C.ar    1  UNL1        0.0005
      6 C          61.6423   89.2073    9.6973 C.ar    1  UNL1        0.0006
      7 C          63.3710   90.5252   11.1200 C.3     1  UNL1        0.1345
      8 O          63.2889   91.6724   10.1571 O.3     1  UNL1       -0.3800
      9 C          64.2764   90.6106   12.3130 C.3     1  UNL1        0.0565
     10 C          64.3585   89.4634   13.2758 C.3     1  UNL1        0.0096
     11 C          63.5352   88.2308   13.0459 C.3     1  UNL1        0.0263
     12 H          63.8797   92.3836   10.4504 H       1  UNL1        0.2108
     13 C          65.0998   91.8432   12.5429 C.3     1  UNL1        0.1121
     14 C          65.8392   92.1874   13.8018 C.ar    1  UNL1       -0.0002
     15 C          65.9770   91.4713   15.1125 C.ar    1  UNL1       -0.0024
     16 C          66.8001   92.0727   16.2128 C.ar    1  UNL1       -0.0003
     17 C          67.4856   93.3902   16.0023 C.ar    1  UNL1        0.0000
     18 C          67.3478   94.1063   14.6915 C.ar    1  UNL1        0.0012
     19 C          66.5246   93.5049   13.5912 C.ar    1  UNL1        0.0152
     20 C          66.2088   93.9750   12.2023 C.ar    1  UNL1        0.0804
     21 C          66.4372   95.0798   11.2137 C.ar    1  UNL1        0.1177
     22 N          65.6977   94.7356    9.9548 N.ar    1  UNL1       -0.2223
     23 C          65.0123   93.4181   10.1653 C.ar    1  UNL1        0.1788
     24 N          65.3281   92.9480   11.5543 N.ar    1  UNL1       -0.3069
     25 C          60.0655   86.3970    8.2659 C.3     1  UNL1        0.0720
     26 P          59.9135   87.8892    8.2744 P.3     1  UNL1        0.1353
     27 C          59.7615   89.3815    8.2830 C.3     1  UNL1        0.0720
     28 O          59.0081   87.8039    7.0816 O.2     1  UNL1       -0.3149
@<TRIPOS>BOND
     1    25    26    1
     2    26    27    1
     3    26    28    2
     4    26     1    1
     5     1     2   ar
     6     2     3   ar
     7     3     4   ar
     8     4     5   ar
     9     5     6   ar
    10     5     7    1
    11     7     8    1
    12     7     9    1
    13     9    13    1
    14    13    14    1
    15    14    15   ar
    16    15    16   ar
    17    16    17   ar
    18    17    18   ar
    19    18    19   ar
    20    19    20    1
    21    20    21   ar
    22    21    22   ar
    23    22    23   ar
    24    23    24   ar
    25     9    10    1
    26    10    11    1
    27     6     1   ar
    28    13    24    1
    29    11     4    1
    30    19    14   ar
    31    24    20   ar
    32     8    12    1
@<TRIPOS>MOLECULE
*****
 28 32 0 0 0
SMALL
GASTEIGER

@<TRIPOS>ATOM
      1 C          63.1955   82.0039   13.1578 C.ar    1  UNL1        0.0294
      2 C          63.6260   81.8542   14.5869 C.ar    1  UNL1        0.0025
      3 C          63.9591   83.0692   15.4010 C.ar    1  UNL1       -0.0044
      4 C          63.8616   84.4338   14.7861 C.ar    1  UNL1       -0.0239
      5 C          63.4310   84.5835   13.3570 C.ar    1  UNL1        0.0005
      6 C          63.0980   83.3685   12.5428 C.ar    1  UNL1        0.0006
      7 C          63.3335   85.9482   12.7420 C.3     1  UNL1        0.1345
      8 O          62.9030   86.0978   11.3130 O.3     1  UNL1       -0.3800
      9 C          63.6666   87.1633   13.5562 C.3     1  UNL1        0.0565
     10 C          64.0971   87.0135   14.9852 C.3     1  UNL1        0.0096
     11 C          64.1946   85.6489   15.6002 C.3     1  UNL1        0.0263
     12 H          62.8931   87.0381   11.0750 H       1  UNL1        0.2108
     13 C          63.5691   88.5279   12.9412 C.3     1  UNL1        0.1121
     14 C          62.7441   88.8988   11.7446 C.ar    1  UNL1       -0.0002
     15 C          61.8363   88.0937   10.8628 C.ar    1  UNL1       -0.0024
     16 C          61.1290   88.7512    9.7151 C.ar    1  UNL1       -0.0003
     17 C          61.3294   90.2138    9.4492 C.ar    1  UNL1        0.0000
     18 C          62.2372   91.0189   10.3310 C.ar    1  UNL1        0.0012
     19 C          62.9446   90.3614   11.4787 C.ar    1  UNL1        0.0152
     20 C          63.8934   90.8944   12.5110 C.ar    1  UNL1        0.0804
     21 C          64.6037   92.1278   12.9847 C.ar    1  UNL1        0.1177
     22 N          65.4287   91.7568   14.1813 N.ar    1  UNL1       -0.2223
     23 C          65.2282   90.2942   14.4472 C.ar    1  UNL1        0.1788
     24 N          64.2794   89.7612   13.4149 N.ar    1  UNL1       -0.3069
     25 C          63.3149   81.4972   11.1013 C.3     1  UNL1        0.0720
     26 P          62.8624   80.7888   12.3436 P.3     1  UNL1        0.1353
     27 C          62.4101   80.0804   13.5860 C.3     1  UNL1        0.0720
     28 O          62.5294   79.5737   11.5296 O.2     1  UNL1       -0.3149
@<TRIPOS>BOND
     1    25    26    1
     2    26    27    1
     3    26    28    2
     4    26     1    1
     5     1     2   ar
     6     2     3   ar
     7     3     4   ar
     8     4     5   ar
     9     5     6   ar
    10     5     7    1
    11     7     8    1
    12     7     9    1
    13     9    13    1
    14    13    14    1
    15    14    15   ar
    16    15    16   ar
    17    16    17   ar
    18    17    18   ar
    19    18    19   ar
    20    19    20    1
    21    20    21   ar
    22    21    22   ar
    23    22    23   ar
    24    23    24   ar
    25     9    10    1
    26    10    11    1
    27     6     1   ar
    28    13    24    1
    29    11     4    1
    30    19    14   ar
    31    24    20   ar
    32     8    12    1
@<TRIPOS>MOLECULE
*****
 28 32 0 0 0
SMALL
GASTEIGER

@<TRIPOS>ATOM
      1 C          63.1296   84.6697   15.5673 C.ar    1  UNL1        0.0294
      2 C          62.5228   84.9092   16.9180 C.ar    1  UNL1        0.0025
      3 C          62.4806   86.2968   17.4860 C.ar    1  UNL1       -0.0044
      4 C          63.0454   87.4450   16.7032 C.ar    1  UNL1       -0.0239
      5 C          63.6523   87.2056   15.3526 C.ar    1  UNL1        0.0005
      6 C          63.6944   85.8179   14.7846 C.ar    1  UNL1        0.0006
      7 C          64.2170   88.3538   14.5698 C.3     1  UNL1        0.1345
      8 O          64.8239   88.1143   13.2192 O.3     1  UNL1       -0.3800
      9 C          64.1749   89.7415   15.1378 C.3     1  UNL1        0.0565
     10 C          63.5680   89.9809   16.4884 C.3     1  UNL1        0.0096
     11 C          63.0032   88.8327   17.2712 C.3     1  UNL1        0.0263
     12 H          65.1387   88.9553   12.8524 H       1  UNL1        0.2108
     13 C          64.7397   90.8897   14.3551 C.3     1  UNL1        0.1121
     14 C          64.4125   91.2321   12.9318 C.ar    1  UNL1       -0.0002
     15 C          63.4983   90.5915   11.9300 C.ar    1  UNL1       -0.0024
     16 C          63.3728   91.1697   10.5517 C.ar    1  UNL1       -0.0003
     17 C          64.1617   92.3887   10.1752 C.ar    1  UNL1        0.0000
     18 C          65.0760   93.0294   11.1769 C.ar    1  UNL1        0.0012
     19 C          65.2014   92.4511   12.5552 C.ar    1  UNL1        0.0152
     20 C          66.0160   92.8620   13.7458 C.ar    1  UNL1        0.0804
     21 C          67.0071   93.8695   14.2489 C.ar    1  UNL1        0.1177
     22 N          67.3342   93.5270   15.6722 N.ar    1  UNL1       -0.2223
     23 C          66.5453   92.3080   16.0488 C.ar    1  UNL1        0.1788
     24 N          65.7307   91.8971   14.8582 N.ar    1  UNL1       -0.3069
     25 C          61.6728   83.2570   14.9491 C.3     1  UNL1        0.0720
     26 P          63.1718   83.2820   14.9993 P.3     1  UNL1        0.1353
     27 C          64.6707   83.3070   15.0496 C.3     1  UNL1        0.0720
     28 O          63.2140   81.8943   14.4314 O.2     1  UNL1       -0.3149
@<TRIPOS>BOND
     1    25    26    1
     2    26    27    1
     3    26    28    2
     4    26     1    1
     5     1     2   ar
     6     2     3   ar
     7     3     4   ar
     8     4     5   ar
     9     5     6   ar
    10     5     7    1
    11     7     8    1
    12     7     9    1
    13     9    13    1
    14    13    14    1
    15    14    15   ar
    16    15    16   ar
    17    16    17   ar
    18    17    18   ar
    19    18    19   ar
    20    19    20    1
    21    20    21   ar
    22    21    22   ar
    23    22    23   ar
    24    23    24   ar
    25     9    10    1
    26    10    11    1
    27     6     1   ar
    28    13    24    1
    29    11     4    1
    30    19    14   ar
    31    24    20   ar
    32     8    12    1
