@<TRIPOS>MOLECULE
*****
 31 33 0 0 0
SMALL
GASTEIGER

@<TRIPOS>ATOM
      1 C          62.7717   85.5737   11.9592 C.ar    1  UNL1       -0.0004
      2 C          63.1023   86.9888   12.3307 C.ar    1  UNL1       -0.0024
      3 C          62.5325   88.1257   11.5351 C.ar    1  UNL1       -0.0002
      4 C          61.6321   87.8474   10.3682 C.ar    1  UNL1        0.0030
      5 C          61.0624   88.9843    9.5726 C.ar    1  UNL1        0.0369
      6 C          60.1619   88.7061    8.4057 C.ar    1  UNL1        0.1386
      7 C          59.8313   87.2908    8.0342 C.ar    1  UNL1        0.0369
      8 C          60.4011   86.1540    8.8297 C.ar    1  UNL1        0.0031
      9 C          61.3015   86.4323    9.9967 C.ar    1  UNL1       -0.0001
     10 C          61.8713   85.2954   10.7922 C.ar    1  UNL1       -0.0024
     11 C          63.3415   84.4368   12.7547 C.3     1  UNL1        0.1240
     12 N          63.2713   83.0374   12.2192 N.ar    1  UNL1       -0.3045
     13 C          62.6111   81.8690   12.8893 C.ar    1  UNL1        0.0983
     14 C          62.7808   80.6702   12.0038 C.ar    1  UNL1        0.1193
     15 N          63.5459   81.0977   10.7865 N.ar    1  UNL1       -0.2223
     16 C          63.8491   82.5607   10.9196 C.ar    1  UNL1        0.1788
     17 C          63.9814   84.6993   14.0857 C.3     1  UNL1        0.0826
     18 C          65.4688   84.5803   14.2393 C.3     1  UNL1        0.0197
     19 N          63.1340   85.0807   15.2631 N.3     1  UNL1       -0.2721
     20 C          61.9885   84.2055   15.6777 C.3     1  UNL1        0.0896
     21 C          64.1957   87.4495   15.3703 C.3     1  UNL1        0.0173
     22 C          63.4320   86.3374   16.0260 C.3     1  UNL1        0.0577
     23 C          62.9663   86.4820   17.4445 C.3     1  UNL1        0.0173
     24 O          59.5922   89.8429    7.6102 O.3     1  UNL1       -0.4751
     25 C          59.4931   89.7381    6.1171 C.3     1  UNL1        0.2103
     26 C          58.8658   90.8483    5.3272 C.3     1  UNL1        0.0724
     27 C          60.2230   91.2810    4.8576 C.3     1  UNL1        0.0093
     28 C          57.5085   90.4155    5.7969 C.3     1  UNL1        0.0093
     29 C          58.2385   91.9585    4.5374 C.2     1  UNL1        0.0532
     30 O          59.0571   92.7264    3.5423 O.co2   1  UNL1       -0.5491
     31 O          56.7925   92.3008    4.7427 O.co2   1  UNL1       -0.5491
@<TRIPOS>UNITY_ATOM_ATTR
30 1
charge -1
@<TRIPOS>BOND
     1    21    22    1
     2    22    23    1
     3    22    19    1
     4    19    20    1
     5    19    17    1
     6    17    18    1
     7    17    11    1
     8    11     1    1
     9     1     2   ar
    10     2     3   ar
    11     3     4   ar
    12     4     5   ar
    13     5     6   ar
    14     6    24    1
    15    24    25    1
    16    25    26    1
    17    26    27    1
    18    26    28    1
    19    26    29    1
    20    29    30   ar
    21    29    31   ar
    22     6     7   ar
    23     7     8   ar
    24     8     9   ar
    25     9    10   ar
    26    11    12    1
    27    12    13   ar
    28    13    14   ar
    29    14    15   ar
    30    15    16   ar
    31    10     1   ar
    32    16    12   ar
    33     9     4   ar
@<TRIPOS>MOLECULE
*****
 31 33 0 0 0
SMALL
GASTEIGER

@<TRIPOS>ATOM
      1 C          65.2805   92.0145   12.4910 C.ar    1  UNL1       -0.0004
      2 C          65.0287   91.0638   13.6235 C.ar    1  UNL1       -0.0024
      3 C          63.9544   90.0237   13.5048 C.ar    1  UNL1       -0.0002
      4 C          63.1319   89.9344   12.2536 C.ar    1  UNL1        0.0030
      5 C          62.0576   88.8943   12.1349 C.ar    1  UNL1        0.0369
      6 C          61.2351   88.8049   10.8837 C.ar    1  UNL1        0.1386
      7 C          61.4870   89.7557    9.7511 C.ar    1  UNL1        0.0369
      8 C          62.5613   90.7958    9.8698 C.ar    1  UNL1        0.0031
      9 C          63.3837   90.8851   11.1211 C.ar    1  UNL1       -0.0001
     10 C          64.4580   91.9252   11.2398 C.ar    1  UNL1       -0.0024
     11 C          66.3548   93.0547   12.6096 C.3     1  UNL1        0.1240
     12 N          67.2979   93.0291   13.7758 N.ar    1  UNL1       -0.3045
     13 C          67.1904   93.8672   15.0151 C.ar    1  UNL1        0.0983
     14 C          68.3401   93.5171   15.9126 C.ar    1  UNL1        0.1193
     15 N          69.1583   92.4627   15.2279 N.ar    1  UNL1       -0.2223
     16 C          68.5142   92.1611   13.9073 C.ar    1  UNL1        0.1788
     17 C          66.4860   94.1203   11.5621 C.3     1  UNL1        0.0826
     18 C          65.8233   95.4515   11.7594 C.3     1  UNL1        0.0197
     19 N          67.2798   93.8547   10.3174 N.3     1  UNL1       -0.2721
     20 C          67.9601   92.5310   10.1298 C.3     1  UNL1        0.0896
     21 C          67.6324   96.3411    9.6514 C.3     1  UNL1        0.0173
     22 C          67.3934   94.9128    9.2603 C.3     1  UNL1        0.0577
     23 C          67.2679   94.5427    7.8121 C.3     1  UNL1        0.0173
     24 O          60.1608   87.7649   10.7650 O.3     1  UNL1       -0.4751
     25 C          59.6487   87.3665    9.4125 C.3     1  UNL1        0.2103
     26 C          60.4499   86.4354    8.5516 C.3     1  UNL1        0.0724
     27 C          59.6959   86.9045    7.3427 C.3     1  UNL1        0.0093
     28 C          61.2039   85.9664    9.7605 C.3     1  UNL1        0.0093
     29 C          61.2511   85.5044    7.6907 C.2     1  UNL1        0.0532
     30 O          60.5993   84.8030    6.5360 O.co2   1  UNL1       -0.5491
     31 O          62.7040   85.2748    7.9843 O.co2   1  UNL1       -0.5491
@<TRIPOS>UNITY_ATOM_ATTR
30 1
charge -1
@<TRIPOS>BOND
     1    21    22    1
     2    22    23    1
     3    22    19    1
     4    19    20    1
     5    19    17    1
     6    17    18    1
     7    17    11    1
     8    11     1    1
     9     1     2   ar
    10     2     3   ar
    11     3     4   ar
    12     4     5   ar
    13     5     6   ar
    14     6    24    1
    15    24    25    1
    16    25    26    1
    17    26    27    1
    18    26    28    1
    19    26    29    1
    20    29    30   ar
    21    29    31   ar
    22     6     7   ar
    23     7     8   ar
    24     8     9   ar
    25     9    10   ar
    26    11    12    1
    27    12    13   ar
    28    13    14   ar
    29    14    15   ar
    30    15    16   ar
    31    10     1   ar
    32    16    12   ar
    33     9     4   ar
@<TRIPOS>MOLECULE
*****
 31 33 0 0 0
SMALL
GASTEIGER

@<TRIPOS>ATOM
      1 C          65.2094   92.0232   11.8256 C.ar    1  UNL1       -0.0004
      2 C          64.9670   91.2166   13.0668 C.ar    1  UNL1       -0.0024
      3 C          63.8386   90.2293   13.1111 C.ar    1  UNL1       -0.0002
      4 C          62.9527   90.0486   11.9143 C.ar    1  UNL1        0.0030
      5 C          61.8243   89.0612   11.9586 C.ar    1  UNL1        0.0369
      6 C          60.9384   88.8804   10.7618 C.ar    1  UNL1        0.1386
      7 C          61.1809   89.6871    9.5205 C.ar    1  UNL1        0.0369
      8 C          62.3092   90.6744    9.4762 C.ar    1  UNL1        0.0031
      9 C          63.1951   90.8551   10.6731 C.ar    1  UNL1       -0.0001
     10 C          64.3234   91.8425   10.6287 C.ar    1  UNL1       -0.0024
     11 C          66.3378   93.0106   11.7812 C.3     1  UNL1        0.1240
     12 N          66.9552   93.3853   10.4665 N.ar    1  UNL1       -0.3045
     13 C          66.7678   94.6860    9.7433 C.ar    1  UNL1        0.0983
     14 C          67.5652   94.6298    8.4741 C.ar    1  UNL1        0.1193
     15 N          68.2454   93.2942    8.4128 N.ar    1  UNL1       -0.2223
     16 C          67.8684   92.5251    9.6442 C.ar    1  UNL1        0.1788
     17 C          66.8487   93.6232   13.0515 C.3     1  UNL1        0.0826
     18 C          66.4408   95.0164   13.4293 C.3     1  UNL1        0.0197
     19 N          67.7674   92.8427   13.9440 N.3     1  UNL1       -0.2721
     20 C          68.6454   91.7729   13.3652 C.3     1  UNL1        0.0896
     21 C          68.9635   93.8903   15.9988 C.3     1  UNL1        0.0173
     22 C          67.8083   93.1318   15.4153 C.3     1  UNL1        0.0577
     23 C          66.6941   92.6626   16.3031 C.3     1  UNL1        0.0173
     24 O          59.8101   87.8931   10.8061 O.3     1  UNL1       -0.4751
     25 C          59.3308   87.2445    9.5413 C.3     1  UNL1        0.2103
     26 C          60.2847   86.4535    8.6961 C.3     1  UNL1        0.0724
     27 C          59.5432   86.8770    7.4629 C.3     1  UNL1        0.0093
     28 C          61.0262   86.0299    9.9293 C.3     1  UNL1        0.0093
     29 C          61.2385   85.6624    7.8509 C.2     1  UNL1        0.0532
     30 O          62.6937   85.6100    8.2111 O.co2   1  UNL1       -0.5491
     31 O          60.7372   84.9238    6.6454 O.co2   1  UNL1       -0.5491
@<TRIPOS>UNITY_ATOM_ATTR
30 1
charge -1
@<TRIPOS>BOND
     1    21    22    1
     2    22    23    1
     3    22    19    1
     4    19    20    1
     5    19    17    1
     6    17    18    1
     7    17    11    1
     8    11     1    1
     9     1     2   ar
    10     2     3   ar
    11     3     4   ar
    12     4     5   ar
    13     5     6   ar
    14     6    24    1
    15    24    25    1
    16    25    26    1
    17    26    27    1
    18    26    28    1
    19    26    29    1
    20    29    30   ar
    21    29    31   ar
    22     6     7   ar
    23     7     8   ar
    24     8     9   ar
    25     9    10   ar
    26    11    12    1
    27    12    13   ar
    28    13    14   ar
    29    14    15   ar
    30    15    16   ar
    31    10     1   ar
    32    16    12   ar
    33     9     4   ar
@<TRIPOS>MOLECULE
*****
 31 33 0 0 0
SMALL
GASTEIGER

@<TRIPOS>ATOM
      1 C          63.4898   86.2831   12.7547 C.ar    1  UNL1       -0.0004
      2 C          64.0751   86.0501   14.1160 C.ar    1  UNL1       -0.0024
      3 C          64.4465   87.2169   14.9824 C.ar    1  UNL1       -0.0002
      4 C          64.2326   88.6166   14.4875 C.ar    1  UNL1        0.0030
      5 C          64.6041   89.7834   15.3540 C.ar    1  UNL1        0.0369
      6 C          64.3902   91.1832   14.8591 C.ar    1  UNL1        0.1386
      7 C          63.8048   91.4162   13.4978 C.ar    1  UNL1        0.0369
      8 C          63.4334   90.2494   12.6314 C.ar    1  UNL1        0.0031
      9 C          63.6473   88.8497   13.1262 C.ar    1  UNL1       -0.0001
     10 C          63.2759   87.6829   12.2599 C.ar    1  UNL1       -0.0024
     11 C          63.1183   85.1163   11.8883 C.3     1  UNL1        0.1240
     12 N          62.4335   85.3463   10.5737 N.ar    1  UNL1       -0.3045
     13 C          61.0867   85.9776   10.3797 C.ar    1  UNL1        0.0983
     14 C          60.7962   86.0069    8.9084 C.ar    1  UNL1        0.1193
     15 N          61.9634   85.3937    8.1930 N.ar    1  UNL1       -0.2223
     16 C          62.9753   84.9855    9.2223 C.ar    1  UNL1        0.1788
     17 C          63.4316   83.7196   12.3365 C.3     1  UNL1        0.0826
     18 C          64.6506   83.0196   11.8129 C.3     1  UNL1        0.0197
     19 N          62.5260   83.0228   13.3082 N.3     1  UNL1       -0.2721
     20 C          62.0469   83.7414   14.5347 C.3     1  UNL1        0.0896
     21 C          62.6815   80.8446   11.9006 C.3     1  UNL1        0.0173
     22 C          62.0994   81.6075   13.0536 C.3     1  UNL1        0.0577
     23 C          61.0908   80.9550   13.9518 C.3     1  UNL1        0.0173
     24 O          64.7616   92.3500   15.7255 O.3     1  UNL1       -0.4751
     25 C          66.2041   92.7183   15.9096 C.3     1  UNL1        0.2103
     26 C          67.1681   92.5670   14.7704 C.3     1  UNL1        0.0724
     27 C          66.5115   93.7149   14.0624 C.3     1  UNL1        0.0093
     28 C          67.8246   91.4191   15.4784 C.3     1  UNL1        0.0093
     29 C          68.1321   92.4157   13.6312 C.2     1  UNL1        0.0532
     30 O          69.6018   92.2910   13.9039 O.co2   1  UNL1       -0.5491
     31 O          67.6264   92.3891   12.2193 O.co2   1  UNL1       -0.5491
@<TRIPOS>UNITY_ATOM_ATTR
30 1
charge -1
@<TRIPOS>BOND
     1    21    22    1
     2    22    23    1
     3    22    19    1
     4    19    20    1
     5    19    17    1
     6    17    18    1
     7    17    11    1
     8    11     1    1
     9     1     2   ar
    10     2     3   ar
    11     3     4   ar
    12     4     5   ar
    13     5     6   ar
    14     6    24    1
    15    24    25    1
    16    25    26    1
    17    26    27    1
    18    26    28    1
    19    26    29    1
    20    29    30   ar
    21    29    31   ar
    22     6     7   ar
    23     7     8   ar
    24     8     9   ar
    25     9    10   ar
    26    11    12    1
    27    12    13   ar
    28    13    14   ar
    29    14    15   ar
    30    15    16   ar
    31    10     1   ar
    32    16    12   ar
    33     9     4   ar
@<TRIPOS>MOLECULE
*****
 31 33 0 0 0
SMALL
GASTEIGER

@<TRIPOS>ATOM
      1 C          62.4359   88.1983   10.5765 C.ar    1  UNL1       -0.0004
      2 C          62.4270   89.6128   10.0776 C.ar    1  UNL1       -0.0024
      3 C          62.9359   90.7198   10.9525 C.ar    1  UNL1       -0.0002
      4 C          63.4537   90.4122   12.3263 C.ar    1  UNL1        0.0030
      5 C          63.9626   91.5193   13.2013 C.ar    1  UNL1        0.0369
      6 C          64.4804   91.2117   14.5751 C.ar    1  UNL1        0.1386
      7 C          64.4892   89.7971   15.0739 C.ar    1  UNL1        0.0369
      8 C          63.9803   88.6901   14.1990 C.ar    1  UNL1        0.0031
      9 C          63.4625   88.9977   12.8252 C.ar    1  UNL1       -0.0001
     10 C          62.9536   87.8907   11.9502 C.ar    1  UNL1       -0.0024
     11 C          61.9269   87.0912    9.7015 C.3     1  UNL1        0.1240
     12 N          60.7180   87.3107    8.8412 N.ar    1  UNL1       -0.3045
     13 C          60.2005   88.6372    8.3696 C.ar    1  UNL1        0.0983
     14 C          58.9769   88.3886    7.5384 C.ar    1  UNL1        0.1193
     15 N          58.7381   86.9082    7.4963 N.ar    1  UNL1       -0.2223
     16 C          59.8141   86.2421    8.3015 C.ar    1  UNL1        0.1788
     17 C          62.6271   85.7647    9.6869 C.3     1  UNL1        0.0826
     18 C          63.3019   85.2866    8.4355 C.3     1  UNL1        0.0197
     19 N          62.6524   84.9163   10.9237 N.3     1  UNL1       -0.2721
     20 C          61.6188   85.1171   11.9921 C.3     1  UNL1        0.0896
     21 C          64.0597   82.9629    9.9471 C.3     1  UNL1        0.0173
     22 C          63.7111   83.8672   11.0920 C.3     1  UNL1        0.0577
     23 C          64.4214   83.7224   12.4052 C.3     1  UNL1        0.0173
     24 O          64.9893   92.3187   15.4500 O.3     1  UNL1       -0.4751
     25 C          66.3992   92.8075   15.2973 C.3     1  UNL1        0.2103
     26 C          67.1319   92.5923   14.0063 C.3     1  UNL1        0.0724
     27 C          67.7980   91.3800   14.5864 C.3     1  UNL1        0.0093
     28 C          66.4658   93.8046   13.4262 C.3     1  UNL1        0.0093
     29 C          67.8646   92.3771   12.7153 C.2     1  UNL1        0.0532
     30 O          67.2901   92.8974   11.4310 O.co2   1  UNL1       -0.5491
     31 O          69.1719   91.6416   12.7084 O.co2   1  UNL1       -0.5491
@<TRIPOS>UNITY_ATOM_ATTR
30 1
charge -1
@<TRIPOS>BOND
     1    21    22    1
     2    22    23    1
     3    22    19    1
     4    19    20    1
     5    19    17    1
     6    17    18    1
     7    17    11    1
     8    11     1    1
     9     1     2   ar
    10     2     3   ar
    11     3     4   ar
    12     4     5   ar
    13     5     6   ar
    14     6    24    1
    15    24    25    1
    16    25    26    1
    17    26    27    1
    18    26    28    1
    19    26    29    1
    20    29    30   ar
    21    29    31   ar
    22     6     7   ar
    23     7     8   ar
    24     8     9   ar
    25     9    10   ar
    26    11    12    1
    27    12    13   ar
    28    13    14   ar
    29    14    15   ar
    30    15    16   ar
    31    10     1   ar
    32    16    12   ar
    33     9     4   ar
@<TRIPOS>MOLECULE
*****
 31 33 0 0 0
SMALL
GASTEIGER

@<TRIPOS>ATOM
      1 C          63.3871   85.9160   12.8746 C.ar    1  UNL1       -0.0004
      2 C          64.0683   85.8057   14.2064 C.ar    1  UNL1       -0.0024
      3 C          64.4932   87.0452   14.9364 C.ar    1  UNL1       -0.0002
      4 C          64.2370   88.3951   14.3345 C.ar    1  UNL1        0.0030
      5 C          64.6620   89.6346   15.0646 C.ar    1  UNL1        0.0369
      6 C          64.4058   90.9845   14.4627 C.ar    1  UNL1        0.1386
      7 C          63.7246   91.0948   13.1308 C.ar    1  UNL1        0.0369
      8 C          63.2997   89.8553   12.4009 C.ar    1  UNL1        0.0031
      9 C          63.5559   88.5054   13.0027 C.ar    1  UNL1       -0.0001
     10 C          63.1309   87.2658   12.2727 C.ar    1  UNL1       -0.0024
     11 C          62.9622   84.6764   12.1445 C.3     1  UNL1        0.1240
     12 N          62.6502   83.4249   12.9101 N.ar    1  UNL1       -0.3045
     13 C          62.6135   82.0342   12.3492 C.ar    1  UNL1        0.0983
     14 C          62.2607   81.0941   13.4635 C.ar    1  UNL1        0.1193
     15 N          62.0793   81.9037   14.7132 N.ar    1  UNL1       -0.2223
     16 C          62.3200   83.3442   14.3712 C.ar    1  UNL1        0.1788
     17 C          62.8492   84.6884   10.6488 C.3     1  UNL1        0.0826
     18 C          63.7573   83.8278    9.8212 C.3     1  UNL1        0.0197
     19 N          61.8284   85.5610    9.9808 N.3     1  UNL1       -0.2721
     20 C          60.8920   86.3894   10.8097 C.3     1  UNL1        0.0896
     21 C          60.4784   86.0575    7.8171 C.3     1  UNL1        0.0173
     22 C          61.7438   85.6053    8.4838 C.3     1  UNL1        0.0577
     23 C          62.9246   85.1975    7.6535 C.3     1  UNL1        0.0173
     24 O          64.8307   92.2241   15.1927 O.3     1  UNL1       -0.4751
     25 C          66.2558   92.6866   15.1189 C.3     1  UNL1        0.2103
     26 C          67.0313   92.5262   13.8450 C.3     1  UNL1        0.0724
     27 C          67.8060   91.3979   14.4587 C.3     1  UNL1        0.0093
     28 C          66.2567   93.6546   13.2313 C.3     1  UNL1        0.0093
     29 C          67.8068   92.3658   12.5712 C.2     1  UNL1        0.0532
     30 O          69.1112   91.6250   12.5754 O.co2   1  UNL1       -0.5491
     31 O          67.2781   92.9462   11.2930 O.co2   1  UNL1       -0.5491
@<TRIPOS>UNITY_ATOM_ATTR
30 1
charge -1
@<TRIPOS>BOND
     1    21    22    1
     2    22    23    1
     3    22    19    1
     4    19    20    1
     5    19    17    1
     6    17    18    1
     7    17    11    1
     8    11     1    1
     9     1     2   ar
    10     2     3   ar
    11     3     4   ar
    12     4     5   ar
    13     5     6   ar
    14     6    24    1
    15    24    25    1
    16    25    26    1
    17    26    27    1
    18    26    28    1
    19    26    29    1
    20    29    30   ar
    21    29    31   ar
    22     6     7   ar
    23     7     8   ar
    24     8     9   ar
    25     9    10   ar
    26    11    12    1
    27    12    13   ar
    28    13    14   ar
    29    14    15   ar
    30    15    16   ar
    31    10     1   ar
    32    16    12   ar
    33     9     4   ar
@<TRIPOS>MOLECULE
*****
 31 33 0 0 0
SMALL
GASTEIGER

@<TRIPOS>ATOM
      1 C          61.3954   93.2911    2.2006 C.ar    1  UNL1       -0.0004
      2 C          62.5126   92.3862    2.6284 C.ar    1  UNL1       -0.0024
      3 C          62.2762   91.3531    3.6898 C.ar    1  UNL1       -0.0002
      4 C          60.9226   91.2248    4.3234 C.ar    1  UNL1        0.0030
      5 C          60.6863   90.1915    5.3849 C.ar    1  UNL1        0.0369
      6 C          59.3327   90.0632    6.0185 C.ar    1  UNL1        0.1386
      7 C          58.2155   90.9682    5.5906 C.ar    1  UNL1        0.0369
      8 C          58.4519   92.0013    4.5292 C.ar    1  UNL1        0.0031
      9 C          59.8055   92.1296    3.8956 C.ar    1  UNL1       -0.0001
     10 C          60.0418   93.1628    2.8342 C.ar    1  UNL1       -0.0024
     11 C          61.6317   94.3243    1.1391 C.3     1  UNL1        0.1240
     12 N          60.9624   94.1937   -0.1969 N.ar    1  UNL1       -0.3045
     13 C          59.7816   94.9869   -0.6727 C.ar    1  UNL1        0.0983
     14 C          59.4458   94.5304   -2.0616 C.ar    1  UNL1        0.1193
     15 N          60.4192   93.4551   -2.4441 N.ar    1  UNL1       -0.2223
     16 C          61.3565   93.2470   -1.2917 C.ar    1  UNL1        0.1788
     17 C          62.5373   95.4881    1.4137 C.3     1  UNL1        0.0826
     18 C          61.9551   96.8429    1.6891 C.3     1  UNL1        0.0197
     19 N          64.0251   95.2972    1.4129 N.3     1  UNL1       -0.2721
     20 C          64.8568   95.8811    2.5164 C.3     1  UNL1        0.0896
     21 C          64.5986   95.0159   -1.1054 C.3     1  UNL1        0.0173
     22 C          64.6813   94.5225    0.3088 C.3     1  UNL1        0.0577
     23 C          65.4201   93.2544    0.6187 C.3     1  UNL1        0.0173
     24 O          59.0964   89.0301    7.0799 O.3     1  UNL1       -0.4751
     25 C          59.7978   89.1384    8.4015 C.3     1  UNL1        0.2103
     26 C          60.5243   87.9529    8.9643 C.3     1  UNL1        0.0724
     27 C          59.5935   87.0339    8.2302 C.3     1  UNL1        0.0093
     28 C          61.4551   88.8720    9.6984 C.3     1  UNL1        0.0093
     29 C          61.2508   86.7675    9.5272 C.2     1  UNL1        0.0532
     30 O          62.2408   86.0233    8.6808 O.co2   1  UNL1       -0.5491
     31 O          60.9874   86.3261   10.9364 O.co2   1  UNL1       -0.5491
@<TRIPOS>UNITY_ATOM_ATTR
30 1
charge -1
@<TRIPOS>BOND
     1    21    22    1
     2    22    23    1
     3    22    19    1
     4    19    20    1
     5    19    17    1
     6    17    18    1
     7    17    11    1
     8    11     1    1
     9     1     2   ar
    10     2     3   ar
    11     3     4   ar
    12     4     5   ar
    13     5     6   ar
    14     6    24    1
    15    24    25    1
    16    25    26    1
    17    26    27    1
    18    26    28    1
    19    26    29    1
    20    29    30   ar
    21    29    31   ar
    22     6     7   ar
    23     7     8   ar
    24     8     9   ar
    25     9    10   ar
    26    11    12    1
    27    12    13   ar
    28    13    14   ar
    29    14    15   ar
    30    15    16   ar
    31    10     1   ar
    32    16    12   ar
    33     9     4   ar
@<TRIPOS>MOLECULE
*****
 31 33 0 0 0
SMALL
GASTEIGER

@<TRIPOS>ATOM
      1 C          62.4185   87.6221   11.1356 C.ar    1  UNL1       -0.0004
      2 C          62.2776   88.9128   10.3845 C.ar    1  UNL1       -0.0024
      3 C          62.8112   90.1851   10.9732 C.ar    1  UNL1       -0.0002
      4 C          63.4856   90.1667   12.3129 C.ar    1  UNL1        0.0030
      5 C          64.0192   91.4391   12.9015 C.ar    1  UNL1        0.0369
      6 C          64.6936   91.4207   14.2412 C.ar    1  UNL1        0.1386
      7 C          64.8345   90.1298   14.9922 C.ar    1  UNL1        0.0369
      8 C          64.3010   88.8575   14.4036 C.ar    1  UNL1        0.0031
      9 C          63.6265   88.8760   13.0639 C.ar    1  UNL1       -0.0001
     10 C          63.0930   87.6037   12.4753 C.ar    1  UNL1       -0.0024
     11 C          61.8849   86.3497   10.5470 C.3     1  UNL1        0.1240
     12 N          60.8867   86.4015    9.4286 N.ar    1  UNL1       -0.3045
     13 C          61.0201   85.7262    8.0958 C.ar    1  UNL1        0.0983
     14 C          59.7957   86.0450    7.2901 C.ar    1  UNL1        0.1193
     15 N          58.9056   86.9173    8.1249 N.ar    1  UNL1       -0.2223
     16 C          59.5799   87.1376    9.4465 C.ar    1  UNL1        0.1788
     17 C          62.3496   85.0256   11.0768 C.3     1  UNL1        0.0826
     18 C          61.9104   84.5654   12.4354 C.3     1  UNL1        0.0197
     19 N          63.2534   84.1616   10.2483 N.3     1  UNL1       -0.2721
     20 C          63.6249   84.5821    8.8571 C.3     1  UNL1        0.0896
     21 C          64.9027   82.9025   11.8118 C.3     1  UNL1        0.0173
     22 C          63.7859   82.8770   10.8108 C.3     1  UNL1        0.0577
     23 C          63.2015   81.5670   10.3723 C.3     1  UNL1        0.0173
     24 O          65.2272   92.6930   14.8298 O.3     1  UNL1       -0.4751
     25 C          66.2748   92.6417   15.9022 C.3     1  UNL1        0.2103
     26 C          67.7011   92.9698   15.5736 C.3     1  UNL1        0.0724
     27 C          68.1649   92.0141   16.6327 C.3     1  UNL1        0.0093
     28 C          67.2374   93.9254   14.5146 C.3     1  UNL1        0.0093
     29 C          69.1274   93.2978   15.2451 C.2     1  UNL1        0.0532
     30 O          69.8396   94.3833   15.9965 O.co2   1  UNL1       -0.5491
     31 O          69.8416   92.5404   14.1651 O.co2   1  UNL1       -0.5491
@<TRIPOS>UNITY_ATOM_ATTR
30 1
charge -1
@<TRIPOS>BOND
     1    21    22    1
     2    22    23    1
     3    22    19    1
     4    19    20    1
     5    19    17    1
     6    17    18    1
     7    17    11    1
     8    11     1    1
     9     1     2   ar
    10     2     3   ar
    11     3     4   ar
    12     4     5   ar
    13     5     6   ar
    14     6    24    1
    15    24    25    1
    16    25    26    1
    17    26    27    1
    18    26    28    1
    19    26    29    1
    20    29    30   ar
    21    29    31   ar
    22     6     7   ar
    23     7     8   ar
    24     8     9   ar
    25     9    10   ar
    26    11    12    1
    27    12    13   ar
    28    13    14   ar
    29    14    15   ar
    30    15    16   ar
    31    10     1   ar
    32    16    12   ar
    33     9     4   ar
@<TRIPOS>MOLECULE
*****
 31 33 0 0 0
SMALL
GASTEIGER

@<TRIPOS>ATOM
      1 C          65.0743   92.4016   11.4833 C.ar    1  UNL1       -0.0004
      2 C          64.2515   92.2980   10.2335 C.ar    1  UNL1       -0.0024
      3 C          63.3498   91.1176   10.0249 C.ar    1  UNL1       -0.0002
      4 C          63.2711   90.0407   11.0661 C.ar    1  UNL1        0.0030
      5 C          62.3694   88.8602   10.8575 C.ar    1  UNL1        0.0369
      6 C          62.2906   87.7834   11.8987 C.ar    1  UNL1        0.1386
      7 C          63.1135   87.8870   13.1486 C.ar    1  UNL1        0.0369
      8 C          64.0152   89.0675   13.3572 C.ar    1  UNL1        0.0031
      9 C          64.0939   90.1443   12.3159 C.ar    1  UNL1       -0.0001
     10 C          64.9956   91.3248   12.5245 C.ar    1  UNL1       -0.0024
     11 C          65.9761   93.5821   11.6919 C.3     1  UNL1        0.1240
     12 N          66.2281   94.5414   10.5667 N.ar    1  UNL1       -0.3045
     13 C          67.2920   94.4098    9.5175 C.ar    1  UNL1        0.0983
     14 C          67.1820   95.5879    8.5955 C.ar    1  UNL1        0.1193
     15 N          66.0501   96.4476    9.0749 N.ar    1  UNL1       -0.2223
     16 C          65.4606   95.8008   10.2932 C.ar    1  UNL1        0.1788
     17 C          66.6256   93.8032   13.0258 C.3     1  UNL1        0.0826
     18 C          66.4897   95.1282   13.7158 C.3     1  UNL1        0.0197
     19 N          67.4111   92.6994   13.6696 N.3     1  UNL1       -0.2721
     20 C          68.3124   91.8361   12.8374 C.3     1  UNL1        0.0896
     21 C          68.5324   92.3499   15.9871 C.3     1  UNL1        0.0173
     22 C          67.2953   92.4588   15.1457 C.3     1  UNL1        0.0577
     23 C          65.9426   92.3270   15.7803 C.3     1  UNL1        0.0173
     24 O          61.3890   86.6029   11.6901 O.3     1  UNL1       -0.4751
     25 C          61.7454   85.5568   10.6759 C.3     1  UNL1        0.2103
     26 C          62.8256   84.5599   10.9745 C.3     1  UNL1        0.0724
     27 C          63.2665   84.6083    9.5416 C.3     1  UNL1        0.0093
     28 C          62.3848   84.5115   12.4074 C.3     1  UNL1        0.0093
     29 C          63.9059   83.5630   11.2732 C.2     1  UNL1        0.0532
     30 O          64.2690   83.2540   12.6954 O.co2   1  UNL1       -0.5491
     31 O          64.6230   82.8750   10.1496 O.co2   1  UNL1       -0.5491
@<TRIPOS>UNITY_ATOM_ATTR
30 1
charge -1
@<TRIPOS>BOND
     1    21    22    1
     2    22    23    1
     3    22    19    1
     4    19    20    1
     5    19    17    1
     6    17    18    1
     7    17    11    1
     8    11     1    1
     9     1     2   ar
    10     2     3   ar
    11     3     4   ar
    12     4     5   ar
    13     5     6   ar
    14     6    24    1
    15    24    25    1
    16    25    26    1
    17    26    27    1
    18    26    28    1
    19    26    29    1
    20    29    30   ar
    21    29    31   ar
    22     6     7   ar
    23     7     8   ar
    24     8     9   ar
    25     9    10   ar
    26    11    12    1
    27    12    13   ar
    28    13    14   ar
    29    14    15   ar
    30    15    16   ar
    31    10     1   ar
    32    16    12   ar
    33     9     4   ar
