@<TRIPOS>MOLECULE
*****
 22 25 0 0 0
SMALL
GASTEIGER

@<TRIPOS>ATOM
      1 C          63.3497   83.8115   14.0812 C.2     1  UNL1        0.3425
      2 O          63.3170   82.5944   14.9573 O.2     1  UNL1       -0.2448
      3 C          60.6692   87.4156   10.2580 C.3     1  UNL1        0.0267
      4 C          61.6555   86.2856   10.2439 C.2     1  UNL1       -0.0394
      5 C          62.2291   85.8069    8.9432 C.2     1  UNL1       -0.0066
      6 C          63.2154   84.6769    8.9291 C.2     1  UNL1        0.0182
      7 C          63.6282   84.0256   10.2157 C.2     1  UNL1        0.0779
      8 N          64.5737   82.8995   10.5125 N.2     1  UNL1       -0.2439
      9 C          64.5844   82.6823   11.9966 C.2     1  UNL1        0.1050
     10 C          63.6456   83.6741   12.6171 C.2     1  UNL1        0.0925
     11 C          63.0546   84.5043   11.5163 C.2     1  UNL1        0.0073
     12 C          62.0683   85.6343   11.5304 C.3     1  UNL1        0.0501
     13 O          63.0865   85.1661   14.6692 O.3     1  UNL1       -0.4454
     14 C          64.2301   86.0907   14.9645 C.3     1  UNL1        0.2087
     15 C          63.9743   87.5509   15.1933 C.3     1  UNL1        0.0445
     16 C          63.3593   88.0117   16.4815 C.3     1  UNL1        0.0210
     17 C          63.1035   89.4719   16.7104 C.3     1  UNL1        0.0722
     18 N          63.4626   90.4713   15.6510 N.3     1  UNL1       -0.2727
     19 C          64.0776   90.0105   14.3628 C.3     1  UNL1        0.0722
     20 C          64.3334   88.5503   14.1340 C.3     1  UNL1        0.0210
     21 C          63.6217   89.6817   15.4800 C.3     1  UNL1        0.0722
     22 C          63.8530   88.3614   15.2731 C.3     1  UNL1        0.0210
@<TRIPOS>BOND
     1     3     4    1
     2     4     5    2
     3     5     6    1
     4     6     7    2
     5     7     8    1
     6     8     9    2
     7     9    10    1
     8    10     1    1
     9     1     2    2
    10     1    13    1
    11    13    14    1
    12    14    15    1
    13    15    16    1
    14    16    17    1
    15    17    18    1
    16    18    19    1
    17    19    20    1
    18    18    21    1
    19    21    22    1
    20    10    11    2
    21    11    12    1
    22    12     4    1
    23    11     7    1
    24    20    15    1
    25    22    15    1
@<TRIPOS>MOLECULE
*****
 22 25 0 0 0
SMALL
GASTEIGER

@<TRIPOS>ATOM
      1 C          64.0418   88.2013   15.1235 C.2     1  UNL1        0.3425
      2 O          63.2679   88.2496   16.4075 O.2     1  UNL1       -0.2448
      3 C          61.7264   88.1184    9.6991 C.3     1  UNL1        0.0267
      4 C          62.4657   89.0652   10.5974 C.2     1  UNL1       -0.0394
      5 C          62.7932   90.4494   10.1212 C.2     1  UNL1       -0.0066
      6 C          63.5325   91.3963   11.0194 C.2     1  UNL1        0.0182
      7 C          63.9444   90.9590   12.3938 C.2     1  UNL1        0.0779
      8 N          64.6777   91.6665   13.4946 N.2     1  UNL1       -0.2439
      9 C          64.8035   90.7195   14.6511 C.2     1  UNL1        0.1050
     10 C          64.1479   89.4268   14.2652 C.2     1  UNL1        0.0925
     11 C          63.6169   89.5748   12.8700 C.2     1  UNL1        0.0073
     12 C          62.8776   88.6279   11.9718 C.3     1  UNL1        0.0501
     13 O          64.7097   86.9274   14.6978 O.3     1  UNL1       -0.4454
     14 C          63.9407   85.6395   14.7023 C.3     1  UNL1        0.2087
     15 C          63.7578   84.8707   13.4274 C.3     1  UNL1        0.0445
     16 C          64.5900   83.6515   13.1609 C.3     1  UNL1        0.0210
     17 C          64.4071   82.8826   11.8859 C.3     1  UNL1        0.0722
     18 N          63.3921   83.3330   10.8775 N.3     1  UNL1       -0.2727
     19 C          62.5600   84.5523   11.1440 C.3     1  UNL1        0.0722
     20 C          62.7428   85.3211   12.4190 C.3     1  UNL1        0.0210
     21 C          63.4564   83.7867   11.5616 C.3     1  UNL1        0.0722
     22 C          63.6218   84.4819   12.7144 C.3     1  UNL1        0.0210
@<TRIPOS>BOND
     1     3     4    1
     2     4     5    2
     3     5     6    1
     4     6     7    2
     5     7     8    1
     6     8     9    2
     7     9    10    1
     8    10     1    1
     9     1     2    2
    10     1    13    1
    11    13    14    1
    12    14    15    1
    13    15    16    1
    14    16    17    1
    15    17    18    1
    16    18    19    1
    17    19    20    1
    18    18    21    1
    19    21    22    1
    20    10    11    2
    21    11    12    1
    22    12     4    1
    23    11     7    1
    24    20    15    1
    25    22    15    1
@<TRIPOS>MOLECULE
*****
 22 25 0 0 0
SMALL
GASTEIGER

@<TRIPOS>ATOM
      1 C          61.6867   88.3052    9.9142 C.2     1  UNL1        0.3425
      2 O          60.3157   88.5642    9.3636 O.2     1  UNL1       -0.2448
      3 C          64.3674   87.0055   15.0050 C.3     1  UNL1        0.0267
      4 C          64.1525   88.1915   14.1122 C.2     1  UNL1       -0.0394
      5 C          64.7294   89.5250   14.4848 C.2     1  UNL1       -0.0066
      6 C          64.5146   90.7110   13.5919 C.2     1  UNL1        0.0182
      7 C          63.7229   90.5636   12.3265 C.2     1  UNL1        0.0779
      8 N          63.3485   91.5459   11.2565 N.2     1  UNL1       -0.2439
      9 C          62.5401   90.8194   10.2226 C.2     1  UNL1        0.1050
     10 C          62.4150   89.3882   10.6536 C.2     1  UNL1        0.0925
     11 C          63.1460   89.2300   11.9539 C.2     1  UNL1        0.0073
     12 C          63.3608   88.0440   12.8467 C.3     1  UNL1        0.0501
     13 O          62.3295   86.9631    9.7253 O.3     1  UNL1       -0.4454
     14 C          61.8249   85.7755   10.4900 C.3     1  UNL1        0.2087
     15 C          62.7765   84.6955   10.9121 C.3     1  UNL1        0.0445
     16 C          63.4791   83.8683    9.8766 C.3     1  UNL1        0.0210
     17 C          64.4307   82.7883   10.2987 C.3     1  UNL1        0.0722
     18 N          64.6797   82.5356   11.7561 N.3     1  UNL1       -0.2727
     19 C          63.9771   83.3629   12.7915 C.3     1  UNL1        0.0722
     20 C          63.0255   84.4428   12.3695 C.3     1  UNL1        0.0210
     21 C          64.1495   83.1385   11.5733 C.3     1  UNL1        0.0722
     22 C          63.2891   84.1150   11.1917 C.3     1  UNL1        0.0210
@<TRIPOS>BOND
     1     3     4    1
     2     4     5    2
     3     5     6    1
     4     6     7    2
     5     7     8    1
     6     8     9    2
     7     9    10    1
     8    10     1    1
     9     1     2    2
    10     1    13    1
    11    13    14    1
    12    14    15    1
    13    15    16    1
    14    16    17    1
    15    17    18    1
    16    18    19    1
    17    19    20    1
    18    18    21    1
    19    21    22    1
    20    10    11    2
    21    11    12    1
    22    12     4    1
    23    11     7    1
    24    20    15    1
    25    22    15    1
@<TRIPOS>MOLECULE
*****
 22 25 0 0 0
SMALL
GASTEIGER

@<TRIPOS>ATOM
      1 C          64.0466   88.5036   14.8905 C.2     1  UNL1        0.3425
      2 O          63.2664   88.7337   16.1508 O.2     1  UNL1       -0.2448
      3 C          67.6463   93.0905   15.7820 C.3     1  UNL1        0.0267
      4 C          66.6817   92.5964   14.7449 C.2     1  UNL1       -0.0394
      5 C          66.4483   93.3950   13.4968 C.2     1  UNL1       -0.0066
      6 C          65.4838   92.9009   12.4597 C.2     1  UNL1        0.0182
      7 C          64.7527   91.6083   12.6707 C.2     1  UNL1        0.0779
      8 N          63.7495   90.8740   11.8314 N.2     1  UNL1       -0.2439
      9 C          63.3629   89.6216   12.5608 C.2     1  UNL1        0.1050
     10 C          64.1271   89.5819   13.8508 C.2     1  UNL1        0.0925
     11 C          64.9861   90.8098   13.9187 C.2     1  UNL1        0.0073
     12 C          65.9506   91.3038   14.9559 C.3     1  UNL1        0.0501
     13 O          64.7462   87.1953   14.6698 O.3     1  UNL1       -0.4454
     14 C          63.9817   85.9090   14.7737 C.3     1  UNL1        0.2087
     15 C          63.7671   85.0633   13.5535 C.3     1  UNL1        0.0445
     16 C          62.7995   85.5047   12.4958 C.3     1  UNL1        0.0210
     17 C          62.5849   84.6591   11.2756 C.3     1  UNL1        0.0722
     18 N          63.3379   83.3720   11.1132 N.3     1  UNL1       -0.2727
     19 C          64.3056   82.9306   12.1710 C.3     1  UNL1        0.0722
     20 C          64.5201   83.7763   13.3911 C.3     1  UNL1        0.0210
     21 C          63.4889   83.8018   11.7991 C.3     1  UNL1        0.0722
     22 C          63.6829   84.5664   12.9024 C.3     1  UNL1        0.0210
@<TRIPOS>BOND
     1     3     4    1
     2     4     5    2
     3     5     6    1
     4     6     7    2
     5     7     8    1
     6     8     9    2
     7     9    10    1
     8    10     1    1
     9     1     2    2
    10     1    13    1
    11    13    14    1
    12    14    15    1
    13    15    16    1
    14    16    17    1
    15    17    18    1
    16    18    19    1
    17    19    20    1
    18    18    21    1
    19    21    22    1
    20    10    11    2
    21    11    12    1
    22    12     4    1
    23    11     7    1
    24    20    15    1
    25    22    15    1
@<TRIPOS>MOLECULE
*****
 22 25 0 0 0
SMALL
GASTEIGER

@<TRIPOS>ATOM
      1 C          61.4871   87.3584   10.4059 C.2     1  UNL1        0.3425
      2 O          60.5966   87.2467   11.6079 O.2     1  UNL1       -0.2448
      3 C          63.8081   83.5434   14.2595 C.3     1  UNL1        0.0267
      4 C          63.6900   83.7179   12.7744 C.2     1  UNL1       -0.0394
      5 C          64.2909   82.7011   11.8496 C.2     1  UNL1       -0.0066
      6 C          64.1728   82.8756   10.3645 C.2     1  UNL1        0.0182
      7 C          63.4539   84.0668    9.8041 C.2     1  UNL1        0.0779
      8 N          63.1800   84.5025    8.3952 N.2     1  UNL1       -0.2439
      9 C          62.4098   85.7886    8.4491 C.2     1  UNL1        0.1050
     10 C          62.2078   86.1478    9.8914 C.2     1  UNL1        0.0925
     11 C          62.8531   85.0836   10.7288 C.2     1  UNL1        0.0073
     12 C          62.9712   84.9091   12.2139 C.3     1  UNL1        0.0501
     13 O          61.6568   88.6808    9.7185 O.3     1  UNL1       -0.4454
     14 C          61.4973   89.9550   10.4937 C.3     1  UNL1        0.2087
     15 C          62.6937   90.6044   11.1237 C.3     1  UNL1        0.0445
     16 C          63.5445   91.5457   10.3236 C.3     1  UNL1        0.0210
     17 C          64.7409   92.1951   10.9535 C.3     1  UNL1        0.0722
     18 N          65.0865   91.9032   12.3837 N.3     1  UNL1       -0.2727
     19 C          64.2358   90.9619   13.1838 C.3     1  UNL1        0.0722
     20 C          63.0394   90.3125   12.5539 C.3     1  UNL1        0.0210
     21 C          64.4212   91.5235   12.0819 C.3     1  UNL1        0.0722
     22 C          63.3394   90.9363   11.5122 C.3     1  UNL1        0.0210
@<TRIPOS>BOND
     1     3     4    1
     2     4     5    2
     3     5     6    1
     4     6     7    2
     5     7     8    1
     6     8     9    2
     7     9    10    1
     8    10     1    1
     9     1     2    2
    10     1    13    1
    11    13    14    1
    12    14    15    1
    13    15    16    1
    14    16    17    1
    15    17    18    1
    16    18    19    1
    17    19    20    1
    18    18    21    1
    19    21    22    1
    20    10    11    2
    21    11    12    1
    22    12     4    1
    23    11     7    1
    24    20    15    1
    25    22    15    1
@<TRIPOS>MOLECULE
*****
 22 25 0 0 0
SMALL
GASTEIGER

@<TRIPOS>ATOM
      1 C          62.5288   85.4129    9.2858 C.2     1  UNL1        0.3425
      2 O          63.1271   84.7780    8.0656 O.2     1  UNL1       -0.2448
      3 C          63.2134   90.2623   12.5731 C.3     1  UNL1        0.0267
      4 C          62.2791   89.7289   11.5279 C.2     1  UNL1       -0.0394
      5 C          61.1152   90.5565   11.0696 C.2     1  UNL1       -0.0066
      6 C          60.1809   90.0230   10.0243 C.2     1  UNL1        0.0182
      7 C          60.4106   88.6619    9.4374 C.2     1  UNL1        0.0779
      8 N          59.6640   87.8773    8.3996 N.2     1  UNL1       -0.2439
      9 C          60.3667   86.5648    8.2164 C.2     1  UNL1        0.1050
     10 C          61.5474   86.5381    9.1411 C.2     1  UNL1        0.0925
     11 C          61.5746   87.8343    9.8957 C.2     1  UNL1        0.0073
     12 C          62.5089   88.3677   10.9409 C.3     1  UNL1        0.0501
     13 O          62.9118   84.9227   10.6507 O.3     1  UNL1       -0.4454
     14 C          63.4481   83.5328   10.8252 C.3     1  UNL1        0.2087
     15 C          63.0199   82.7058   12.0011 C.3     1  UNL1        0.0445
     16 C          62.7426   83.3643   13.3200 C.3     1  UNL1        0.0210
     17 C          62.3144   82.5373   14.4959 C.3     1  UNL1        0.0722
     18 N          62.1635   81.0518   14.3528 N.3     1  UNL1       -0.2727
     19 C          62.4409   80.3933   13.0339 C.3     1  UNL1        0.0722
     20 C          62.8691   81.2203   11.8581 C.3     1  UNL1        0.0210
     21 C          62.4006   81.4632   13.6802 C.3     1  UNL1        0.0722
     22 C          62.7878   82.2111   12.6170 C.3     1  UNL1        0.0210
@<TRIPOS>BOND
     1     3     4    1
     2     4     5    2
     3     5     6    1
     4     6     7    2
     5     7     8    1
     6     8     9    2
     7     9    10    1
     8    10     1    1
     9     1     2    2
    10     1    13    1
    11    13    14    1
    12    14    15    1
    13    15    16    1
    14    16    17    1
    15    17    18    1
    16    18    19    1
    17    19    20    1
    18    18    21    1
    19    21    22    1
    20    10    11    2
    21    11    12    1
    22    12     4    1
    23    11     7    1
    24    20    15    1
    25    22    15    1
@<TRIPOS>MOLECULE
*****
 22 25 0 0 0
SMALL
GASTEIGER

@<TRIPOS>ATOM
      1 C          63.6033   83.5068   10.7752 C.2     1  UNL1        0.3425
      2 O          64.6389   82.6390   10.1237 O.2     1  UNL1       -0.2448
      3 C          64.5155   87.4971   15.0223 C.3     1  UNL1        0.0267
      4 C          63.9090   86.1343   14.8641 C.2     1  UNL1       -0.0394
      5 C          63.3100   85.4377   16.0499 C.2     1  UNL1       -0.0066
      6 C          62.7036   84.0749   15.8917 C.2     1  UNL1        0.0182
      7 C          62.6961   83.4087   14.5479 C.2     1  UNL1        0.0779
      8 N          62.1739   82.0793   14.0895 N.2     1  UNL1       -0.2439
      9 C          62.4502   81.9543   12.6204 C.2     1  UNL1        0.1050
     10 C          63.1431   83.2064   12.1709 C.2     1  UNL1        0.0925
     11 C          63.2951   84.1052   13.3621 C.2     1  UNL1        0.0073
     12 C          63.9016   85.4680   13.5203 C.3     1  UNL1        0.0501
     13 O          63.0278   84.6751   10.0310 O.3     1  UNL1       -0.4454
     14 C          61.7741   85.3347   10.5241 C.3     1  UNL1        0.2087
     15 C          61.2226   86.5299    9.8048 C.3     1  UNL1        0.0445
     16 C          60.2629   86.3437    8.6672 C.3     1  UNL1        0.0210
     17 C          59.7114   87.5389    7.9479 C.3     1  UNL1        0.0722
     18 N          60.1197   88.9203    8.3663 N.3     1  UNL1       -0.2727
     19 C          61.0794   89.1065    9.5039 C.3     1  UNL1        0.0722
     20 C          61.6309   87.9113   10.2232 C.3     1  UNL1        0.0210
     21 C          60.4484   88.2959    8.7906 C.3     1  UNL1        0.0722
     22 C          60.9470   87.2152    9.4409 C.3     1  UNL1        0.0210
@<TRIPOS>BOND
     1     3     4    1
     2     4     5    2
     3     5     6    1
     4     6     7    2
     5     7     8    1
     6     8     9    2
     7     9    10    1
     8    10     1    1
     9     1     2    2
    10     1    13    1
    11    13    14    1
    12    14    15    1
    13    15    16    1
    14    16    17    1
    15    17    18    1
    16    18    19    1
    17    19    20    1
    18    18    21    1
    19    21    22    1
    20    10    11    2
    21    11    12    1
    22    12     4    1
    23    11     7    1
    24    20    15    1
    25    22    15    1
@<TRIPOS>MOLECULE
*****
 22 25 0 0 0
SMALL
GASTEIGER

@<TRIPOS>ATOM
      1 C          63.6464   89.7383   13.7550 C.2     1  UNL1        0.3425
      2 O          64.3998   88.5937   14.3653 O.2     1  UNL1       -0.2448
      3 C          62.4942   84.3577   11.6305 C.3     1  UNL1        0.0267
      4 C          62.3856   85.7900   11.1982 C.2     1  UNL1       -0.0394
      5 C          61.8381   86.1247    9.8424 C.2     1  UNL1       -0.0066
      6 C          61.7295   87.5569    9.4101 C.2     1  UNL1        0.0182
      7 C          62.1685   88.6544   10.3335 C.2     1  UNL1        0.0779
      8 N          62.1807   90.1469   10.1843 N.2     1  UNL1       -0.2439
      9 C          62.7358   90.7346   11.4478 C.2     1  UNL1        0.1050
     10 C          63.0667   89.6053   12.3780 C.2     1  UNL1        0.0925
     11 C          62.7160   88.3197   11.6893 C.2     1  UNL1        0.0073
     12 C          62.8246   86.8874   12.1216 C.3     1  UNL1        0.0501
     13 O          63.4727   91.0158   14.5217 O.3     1  UNL1       -0.4454
     14 C          64.4444   91.3781   15.6054 C.3     1  UNL1        0.2087
     15 C          65.8211   91.8557   15.2495 C.3     1  UNL1        0.0445
     16 C          66.4183   91.4994   13.9204 C.3     1  UNL1        0.0210
     17 C          67.7950   91.9769   13.5645 C.3     1  UNL1        0.0722
     18 N          68.5745   92.8107   14.5377 N.3     1  UNL1       -0.2727
     19 C          67.9773   93.1670   15.8668 C.3     1  UNL1        0.0722
     20 C          66.6006   92.6894   16.2227 C.3     1  UNL1        0.0210
     21 C          67.8238   92.5722   14.7775 C.3     1  UNL1        0.0722
     22 C          66.5790   92.1404   15.0992 C.3     1  UNL1        0.0210
@<TRIPOS>BOND
     1     3     4    1
     2     4     5    2
     3     5     6    1
     4     6     7    2
     5     7     8    1
     6     8     9    2
     7     9    10    1
     8    10     1    1
     9     1     2    2
    10     1    13    1
    11    13    14    1
    12    14    15    1
    13    15    16    1
    14    16    17    1
    15    17    18    1
    16    18    19    1
    17    19    20    1
    18    18    21    1
    19    21    22    1
    20    10    11    2
    21    11    12    1
    22    12     4    1
    23    11     7    1
    24    20    15    1
    25    22    15    1
@<TRIPOS>MOLECULE
*****
 22 25 0 0 0
SMALL
GASTEIGER

@<TRIPOS>ATOM
      1 C          63.0136   84.6744   11.9993 C.2     1  UNL1        0.3425
      2 O          63.6078   83.3360   11.6743 O.2     1  UNL1       -0.2448
      3 C          62.9829   90.5639   11.6762 C.3     1  UNL1        0.0267
      4 C          63.3937   89.4875   12.6367 C.2     1  UNL1       -0.0394
      5 C          63.9961   89.8536   13.9607 C.2     1  UNL1       -0.0066
      6 C          64.4070   88.7771   14.9211 C.2     1  UNL1        0.0182
      7 C          64.2154   87.3345   14.5575 C.2     1  UNL1        0.0779
      8 N          64.5220   86.0645   15.2944 N.2     1  UNL1       -0.2439
      9 C          64.1091   84.9134   14.4257 C.2     1  UNL1        0.1050
     10 C          63.5473   85.4720   13.1520 C.2     1  UNL1        0.0925
     11 C          63.6131   86.9684   13.2335 C.2     1  UNL1        0.0073
     12 C          63.2022   88.0449   12.2731 C.3     1  UNL1        0.0501
     13 O          61.8856   85.2152   11.1715 O.3     1  UNL1       -0.4454
     14 C          62.1455   85.7038    9.7774 C.3     1  UNL1        0.2087
     15 C          61.1662   86.6235    9.1102 C.3     1  UNL1        0.0445
     16 C          61.2026   88.0950    9.3990 C.3     1  UNL1        0.0210
     17 C          60.2233   89.0147    8.7318 C.3     1  UNL1        0.0722
     18 N          59.2077   88.4629    7.7759 N.3     1  UNL1       -0.2727
     19 C          59.1713   86.9914    7.4871 C.3     1  UNL1        0.0722
     20 C          60.1505   86.0717    8.1543 C.3     1  UNL1        0.0210
     21 C          59.7237   87.9197    8.1172 C.3     1  UNL1        0.0722
     22 C          60.6092   87.0882    8.7205 C.3     1  UNL1        0.0210
@<TRIPOS>BOND
     1     3     4    1
     2     4     5    2
     3     5     6    1
     4     6     7    2
     5     7     8    1
     6     8     9    2
     7     9    10    1
     8    10     1    1
     9     1     2    2
    10     1    13    1
    11    13    14    1
    12    14    15    1
    13    15    16    1
    14    16    17    1
    15    17    18    1
    16    18    19    1
    17    19    20    1
    18    18    21    1
    19    21    22    1
    20    10    11    2
    21    11    12    1
    22    12     4    1
    23    11     7    1
    24    20    15    1
    25    22    15    1
