@<TRIPOS>MOLECULE
*****
 30 32 0 0 0
SMALL
GASTEIGER

@<TRIPOS>ATOM
      1 C          62.6539   89.4572   11.0514 C.ar    1  UNL1        0.0070
      2 C          62.8779   89.0581   12.4798 C.ar    1  UNL1       -0.0017
      3 C          63.8100   89.8548   13.3438 C.ar    1  UNL1       -0.0001
      4 C          64.5182   91.0505   12.7792 C.ar    1  UNL1        0.0032
      5 C          65.4504   91.8472   13.6432 C.ar    1  UNL1        0.0402
      6 C          66.1586   93.0429   13.0787 C.ar    1  UNL1        0.1781
      7 C          65.9345   93.4420   11.6501 C.ar    1  UNL1        0.1781
      8 C          65.0024   92.6453   10.7862 C.ar    1  UNL1        0.0402
      9 C          64.2942   91.4496   11.3508 C.ar    1  UNL1        0.0030
     10 C          63.3621   90.6529   10.4869 C.ar    1  UNL1       -0.0016
     11 C          61.7217   88.6605   10.1874 C.3     1  UNL1        0.1426
     12 O          62.8807   88.2196    9.3434 O.3     1  UNL1       -0.3770
     13 H          63.4716   88.9727    9.1869 H       1  UNL1        0.2112
     14 C          60.5627   89.1014   11.0314 C.ar    1  UNL1        0.1019
     15 C          59.9609   90.4752   11.0542 C.ar    1  UNL1        0.1404
     16 N          58.8283   90.4688   12.0377 N.ar    1  UNL1       -0.1276
     17 N          58.7301   89.0910   12.6227 N.ar    1  UNL1       -0.0674
     18 N          59.8020   88.2460   12.0007 N.ar    1  UNL1       -0.2579
     19 H          59.9758   87.2965   12.1947 H       1  UNL1        0.1904
     20 C          60.7862   86.3662    9.4059 C.3     1  UNL1        0.0031
     21 C          60.7895   87.8639    9.3235 C.3     1  UNL1        0.0340
     22 C          59.8606   88.5650    8.3771 C.3     1  UNL1        0.0031
     23 O          67.0907   93.8396   13.9426 O.3     1  UNL1       -0.4205
     24 C          67.7274   93.2047   15.1433 C.3     1  UNL1        0.5087
     25 F          69.1187   92.6518   15.0501 F       1  UNL1       -0.1550
     26 F          66.9728   93.1227   16.4370 F       1  UNL1       -0.1550
     27 O          66.6427   94.6377   11.0856 O.3     1  UNL1       -0.4205
     28 C          67.2346   94.5779    9.7086 C.3     1  UNL1        0.5087
     29 F          68.5220   93.8439    9.4769 F       1  UNL1       -0.1550
     30 F          66.5390   95.2522    8.5634 F       1  UNL1       -0.1550
@<TRIPOS>BOND
     1    20    21    1
     2    21    22    1
     3    21    11    1
     4    11    12    1
     5    11     1    1
     6     1     2   ar
     7     2     3   ar
     8     3     4   ar
     9     4     5   ar
    10     5     6   ar
    11     6    23    1
    12    23    24    1
    13    24    25    1
    14    24    26    1
    15     6     7   ar
    16     7    27    1
    17    27    28    1
    18    28    29    1
    19    28    30    1
    20     7     8   ar
    21     8     9   ar
    22     9    10   ar
    23    11    14    1
    24    14    15   ar
    25    15    16   ar
    26    16    17   ar
    27    17    18   ar
    28    10     1   ar
    29    18    14   ar
    30     9     4   ar
    31    12    13    1
    32    18    19    1
@<TRIPOS>MOLECULE
*****
 30 32 0 0 0
SMALL
GASTEIGER

@<TRIPOS>ATOM
      1 C          61.8398   89.5923   10.6129 C.ar    1  UNL1        0.0070
      2 C          61.7906   89.2125   12.0632 C.ar    1  UNL1       -0.0017
      3 C          62.7604   89.8223   13.0314 C.ar    1  UNL1       -0.0001
      4 C          63.7795   90.8118   12.5494 C.ar    1  UNL1        0.0032
      5 C          64.7493   91.4216   13.5178 C.ar    1  UNL1        0.0402
      6 C          65.7684   92.4112   13.0358 C.ar    1  UNL1        0.1781
      7 C          65.8175   92.7910   11.5854 C.ar    1  UNL1        0.1781
      8 C          64.8477   92.1812   10.6172 C.ar    1  UNL1        0.0402
      9 C          63.8287   91.1917   11.0992 C.ar    1  UNL1        0.0030
     10 C          62.8588   90.5819   10.1309 C.ar    1  UNL1       -0.0016
     11 C          60.8699   88.9826    9.6446 C.3     1  UNL1        0.1426
     12 O          60.3654   90.3497    9.2889 O.3     1  UNL1       -0.3770
     13 H          60.2734   90.8803   10.0957 H       1  UNL1        0.2112
     14 C          61.3744   87.6155   10.0002 C.ar    1  UNL1        0.1019
     15 C          62.3883   86.8220    9.2304 C.ar    1  UNL1        0.1404
     16 N          62.5941   85.5179    9.9425 N.ar    1  UNL1       -0.1276
     17 N          61.7075   85.5054   11.1524 N.ar    1  UNL1       -0.0674
     18 N          60.9537   86.8018   11.1880 N.ar    1  UNL1       -0.2579
     19 H          60.2979   87.0712   11.8711 H       1  UNL1        0.1904
     20 C          59.6445   89.0337    7.3542 C.3     1  UNL1        0.0031
     21 C          59.9001   88.3728    8.6763 C.3     1  UNL1        0.0340
     22 C          59.1859   87.1020    9.0300 C.3     1  UNL1        0.0031
     23 O          66.7382   93.0209   14.0040 O.3     1  UNL1       -0.4205
     24 C          66.9112   92.4234   15.3690 C.3     1  UNL1        0.5087
     25 F          68.0751   91.5200   15.6503 F       1  UNL1       -0.1550
     26 F          65.9201   92.7292   16.4527 F       1  UNL1       -0.1550
     27 O          66.8366   93.7805   11.1035 O.3     1  UNL1       -0.4205
     28 C          67.6783   93.4657    9.9025 C.3     1  UNL1        0.5087
     29 F          67.8998   92.0392    9.4950 F       1  UNL1       -0.1550
     30 F          68.2986   94.5773    9.1091 F       1  UNL1       -0.1550
@<TRIPOS>BOND
     1    20    21    1
     2    21    22    1
     3    21    11    1
     4    11    12    1
     5    11     1    1
     6     1     2   ar
     7     2     3   ar
     8     3     4   ar
     9     4     5   ar
    10     5     6   ar
    11     6    23    1
    12    23    24    1
    13    24    25    1
    14    24    26    1
    15     6     7   ar
    16     7    27    1
    17    27    28    1
    18    28    29    1
    19    28    30    1
    20     7     8   ar
    21     8     9   ar
    22     9    10   ar
    23    11    14    1
    24    14    15   ar
    25    15    16   ar
    26    16    17   ar
    27    17    18   ar
    28    10     1   ar
    29    18    14   ar
    30     9     4   ar
    31    12    13    1
    32    18    19    1
@<TRIPOS>MOLECULE
*****
 30 32 0 0 0
SMALL
GASTEIGER

@<TRIPOS>ATOM
      1 C          63.3060   84.6088   13.8870 C.ar    1  UNL1        0.0070
      2 C          64.1512   85.2421   14.9521 C.ar    1  UNL1       -0.0017
      3 C          64.4256   86.7163   14.9139 C.ar    1  UNL1       -0.0001
      4 C          63.8548   87.5571   13.8106 C.ar    1  UNL1        0.0032
      5 C          64.1293   89.0313   13.7724 C.ar    1  UNL1        0.0402
      6 C          63.5584   89.8722   12.6692 C.ar    1  UNL1        0.1781
      7 C          62.7132   89.2387   11.6041 C.ar    1  UNL1        0.1781
      8 C          62.4388   87.7646   11.6422 C.ar    1  UNL1        0.0402
      9 C          63.0096   86.9237   12.7455 C.ar    1  UNL1        0.0030
     10 C          62.7352   85.4496   12.7837 C.ar    1  UNL1       -0.0016
     11 C          63.0316   83.1345   13.9251 C.3     1  UNL1        0.1426
     12 O          62.5325   83.2638   15.3337 O.3     1  UNL1       -0.3770
     13 H          63.1176   83.8567   15.8309 H       1  UNL1        0.2112
     14 C          63.5306   83.0052   12.5165 C.ar    1  UNL1        0.1019
     15 C          62.6995   82.6686   11.3141 C.ar    1  UNL1        0.1404
     16 N          63.6037   82.6452   10.1174 N.ar    1  UNL1       -0.1276
     17 N          64.9937   82.9674   10.5803 N.ar    1  UNL1       -0.0674
     18 N          64.9485   83.1899   12.0630 N.ar    1  UNL1       -0.2579
     19 H          65.7149   83.4172   12.6376 H       1  UNL1        0.1904
     20 C          61.3498   81.1630   14.1115 C.3     1  UNL1        0.0031
     21 C          62.7572   81.6604   13.9632 C.3     1  UNL1        0.0340
     22 C          63.8902   80.6835   13.8531 C.3     1  UNL1        0.0031
     23 O          63.8328   91.3463   12.6310 O.3     1  UNL1       -0.4205
     24 C          64.9122   91.8855   11.7397 C.3     1  UNL1        0.5087
     25 F          66.3131   92.0240   12.2577 F       1  UNL1       -0.1550
     26 F          64.5907   92.2861   10.3304 F       1  UNL1       -0.1550
     27 O          62.1424   90.0795   10.5008 O.3     1  UNL1       -0.4205
     28 C          60.6672   90.0604   10.2297 C.3     1  UNL1        0.5087
     29 F          60.1306   89.2999    9.0534 F       1  UNL1       -0.1550
     30 F          59.7287   90.8018   11.1349 F       1  UNL1       -0.1550
@<TRIPOS>BOND
     1    20    21    1
     2    21    22    1
     3    21    11    1
     4    11    12    1
     5    11     1    1
     6     1     2   ar
     7     2     3   ar
     8     3     4   ar
     9     4     5   ar
    10     5     6   ar
    11     6    23    1
    12    23    24    1
    13    24    25    1
    14    24    26    1
    15     6     7   ar
    16     7    27    1
    17    27    28    1
    18    28    29    1
    19    28    30    1
    20     7     8   ar
    21     8     9   ar
    22     9    10   ar
    23    11    14    1
    24    14    15   ar
    25    15    16   ar
    26    16    17   ar
    27    17    18   ar
    28    10     1   ar
    29    18    14   ar
    30     9     4   ar
    31    12    13    1
    32    18    19    1
@<TRIPOS>MOLECULE
*****
 30 32 0 0 0
SMALL
GASTEIGER

@<TRIPOS>ATOM
      1 C          62.8876   84.8207   13.1447 C.ar    1  UNL1        0.0070
      2 C          62.2516   85.2477   11.8551 C.ar    1  UNL1       -0.0017
      3 C          62.3206   86.6828   11.4241 C.ar    1  UNL1       -0.0001
      4 C          63.0255   87.6907   12.2827 C.ar    1  UNL1        0.0032
      5 C          63.0944   89.1259   11.8516 C.ar    1  UNL1        0.0402
      6 C          63.7993   90.1338   12.7101 C.ar    1  UNL1        0.1781
      7 C          64.4353   89.7067   13.9998 C.ar    1  UNL1        0.1781
      8 C          64.3663   88.2716   14.4308 C.ar    1  UNL1        0.0402
      9 C          63.6614   87.2637   13.5723 C.ar    1  UNL1        0.0030
     10 C          63.5925   85.8286   14.0033 C.ar    1  UNL1       -0.0016
     11 C          62.8186   83.3855   13.5758 C.3     1  UNL1        0.1426
     12 O          62.2316   83.8084   14.8898 O.3     1  UNL1       -0.3770
     13 H          62.7012   84.5917   15.2166 H       1  UNL1        0.2112
     14 C          63.4057   82.9627   12.2619 C.ar    1  UNL1        0.1019
     15 C          62.7808   82.0152   11.2811 C.ar    1  UNL1        0.1404
     16 N          63.7097   81.8800   10.1110 N.ar    1  UNL1       -0.1276
     17 N          64.9085   82.7440   10.3686 N.ar    1  UNL1       -0.0674
     18 N          64.7207   83.4131   11.6979 N.ar    1  UNL1       -0.2579
     19 H          65.3499   84.0381   12.1252 H       1  UNL1        0.1904
     20 C          64.0091   81.1472   14.1439 C.3     1  UNL1        0.0031
     21 C          62.7497   81.9505   14.0069 C.3     1  UNL1        0.0340
     22 C          61.4214   81.3186   14.3009 C.3     1  UNL1        0.0031
     23 O          63.8683   91.5689   12.2791 O.3     1  UNL1       -0.4205
     24 C          64.1840   91.9092   10.8527 C.3     1  UNL1        0.5087
     25 F          65.5369   92.4470   10.4917 F       1  UNL1       -0.1550
     26 F          63.1467   91.7117    9.7873 F       1  UNL1       -0.1550
     27 O          65.1402   90.7146   14.8584 O.3     1  UNL1       -0.4205
     28 C          66.4966   91.2186   14.4634 C.3     1  UNL1        0.5087
     29 F          66.7521   91.6568   13.0518 F       1  UNL1       -0.1550
     30 F          67.5975   91.2844   15.4801 F       1  UNL1       -0.1550
@<TRIPOS>BOND
     1    20    21    1
     2    21    22    1
     3    21    11    1
     4    11    12    1
     5    11     1    1
     6     1     2   ar
     7     2     3   ar
     8     3     4   ar
     9     4     5   ar
    10     5     6   ar
    11     6    23    1
    12    23    24    1
    13    24    25    1
    14    24    26    1
    15     6     7   ar
    16     7    27    1
    17    27    28    1
    18    28    29    1
    19    28    30    1
    20     7     8   ar
    21     8     9   ar
    22     9    10   ar
    23    11    14    1
    24    14    15   ar
    25    15    16   ar
    26    16    17   ar
    27    17    18   ar
    28    10     1   ar
    29    18    14   ar
    30     9     4   ar
    31    12    13    1
    32    18    19    1
@<TRIPOS>MOLECULE
*****
 30 32 0 0 0
SMALL
GASTEIGER

@<TRIPOS>ATOM
      1 C          65.8523   94.0430   11.4520 C.ar    1  UNL1        0.0070
      2 C          66.4856   94.0690   12.8115 C.ar    1  UNL1       -0.0017
      3 C          66.1895   92.9784   13.7978 C.ar    1  UNL1       -0.0001
      4 C          65.2602   91.8616   13.4245 C.ar    1  UNL1        0.0032
      5 C          64.9642   90.7709   14.4109 C.ar    1  UNL1        0.0402
      6 C          64.0348   89.6542   14.0377 C.ar    1  UNL1        0.1781
      7 C          63.4015   89.6282   12.6781 C.ar    1  UNL1        0.1781
      8 C          63.6975   90.7189   11.6919 C.ar    1  UNL1        0.0402
      9 C          64.6269   91.8356   12.0651 C.ar    1  UNL1        0.0030
     10 C          64.9229   92.9263   11.0788 C.ar    1  UNL1       -0.0016
     11 C          66.1483   95.1337   10.4657 C.3     1  UNL1        0.1426
     12 O          65.1366   96.0149   11.1365 O.3     1  UNL1       -0.3770
     13 H          64.3475   95.4942   11.3535 H       1  UNL1        0.2112
     14 C          67.1600   94.2525    9.7950 C.ar    1  UNL1        0.1019
     15 C          67.3084   94.0475    8.3165 C.ar    1  UNL1        0.1404
     16 N          68.4411   93.0898    8.0926 N.ar    1  UNL1       -0.1276
     17 N          68.9927   92.7030    9.4329 N.ar    1  UNL1       -0.0674
     18 N          68.2010   93.4216   10.4849 N.ar    1  UNL1       -0.2579
     19 H          68.3401   93.3589   11.4575 H       1  UNL1        0.1904
     20 C          65.3780   96.6887    8.5321 C.3     1  UNL1        0.0031
     21 C          66.4443   96.2244    9.4794 C.3     1  UNL1        0.0340
     22 C          67.8068   96.8507    9.4403 C.3     1  UNL1        0.0031
     23 O          63.7388   88.5635   15.0239 O.3     1  UNL1       -0.4205
     24 C          63.3350   88.9099   16.4265 C.3     1  UNL1        0.5087
     25 F          63.2152   90.3470   16.8392 F       1  UNL1       -0.1550
     26 F          63.0511   87.8191   17.4162 F       1  UNL1       -0.1550
     27 O          62.4722   88.5115   12.3049 O.3     1  UNL1       -0.4205
     28 C          61.7476   88.5459   10.9920 C.3     1  UNL1        0.5087
     29 F          62.4843   88.2442    9.7206 F       1  UNL1       -0.1550
     30 F          60.2864   88.8819   10.9504 F       1  UNL1       -0.1550
@<TRIPOS>BOND
     1    20    21    1
     2    21    22    1
     3    21    11    1
     4    11    12    1
     5    11     1    1
     6     1     2   ar
     7     2     3   ar
     8     3     4   ar
     9     4     5   ar
    10     5     6   ar
    11     6    23    1
    12    23    24    1
    13    24    25    1
    14    24    26    1
    15     6     7   ar
    16     7    27    1
    17    27    28    1
    18    28    29    1
    19    28    30    1
    20     7     8   ar
    21     8     9   ar
    22     9    10   ar
    23    11    14    1
    24    14    15   ar
    25    15    16   ar
    26    16    17   ar
    27    17    18   ar
    28    10     1   ar
    29    18    14   ar
    30     9     4   ar
    31    12    13    1
    32    18    19    1
@<TRIPOS>MOLECULE
*****
 30 32 0 0 0
SMALL
GASTEIGER

@<TRIPOS>ATOM
      1 C          64.7021   91.4987   12.4793 C.ar    1  UNL1        0.0070
      2 C          64.2489   92.1900   11.2277 C.ar    1  UNL1       -0.0017
      3 C          63.3081   91.4973   10.2870 C.ar    1  UNL1       -0.0001
      4 C          62.8207   90.1132   10.5978 C.ar    1  UNL1        0.0032
      5 C          61.8799   89.4204    9.6570 C.ar    1  UNL1        0.0402
      6 C          61.3924   88.0363    9.9678 C.ar    1  UNL1        0.1781
      7 C          61.8457   87.3450   11.2195 C.ar    1  UNL1        0.1781
      8 C          62.7864   88.0377   12.1603 C.ar    1  UNL1        0.0402
      9 C          63.2739   89.4218   11.8494 C.ar    1  UNL1        0.0030
     10 C          64.2146   90.1146   12.7902 C.ar    1  UNL1       -0.0016
     11 C          65.6429   92.1914   13.4202 C.3     1  UNL1        0.1426
     12 O          64.7483   91.8418   14.5723 O.3     1  UNL1       -0.3770
     13 H          63.8229   91.9798   14.3165 H       1  UNL1        0.2112
     14 C          66.5375   92.5411   12.2681 C.ar    1  UNL1        0.1019
     15 C          66.3429   93.6836   11.3158 C.ar    1  UNL1        0.1404
     16 N          67.4690   93.6583   10.3251 N.ar    1  UNL1       -0.1276
     17 N          68.3595   92.5000   10.6651 N.ar    1  UNL1       -0.0674
     18 N          67.7838   91.8096   11.8658 N.ar    1  UNL1       -0.2579
     19 H          68.1583   91.0157   12.3117 H       1  UNL1        0.1904
     20 C          66.8295   94.3577   14.2259 C.3     1  UNL1        0.0031
     21 C          66.5837   92.8841   14.3609 C.3     1  UNL1        0.0340
     22 C          67.2787   92.1033   15.4367 C.3     1  UNL1        0.0031
     23 O          60.4516   87.3436    9.0271 O.3     1  UNL1       -0.4205
     24 C          60.9475   86.2256    8.1586 C.3     1  UNL1        0.5087
     25 F          62.4111   85.8994    8.1187 F       1  UNL1       -0.1550
     26 F          59.9798   85.4338    7.3299 F       1  UNL1       -0.1550
     27 O          61.3582   85.9609   11.5304 O.3     1  UNL1       -0.4205
     28 C          62.3341   84.8258   11.6257 C.3     1  UNL1        0.5087
     29 F          63.2250   84.5030   10.4629 F       1  UNL1       -0.1550
     30 F          62.4190   84.0134   12.8837 F       1  UNL1       -0.1550
@<TRIPOS>BOND
     1    20    21    1
     2    21    22    1
     3    21    11    1
     4    11    12    1
     5    11     1    1
     6     1     2   ar
     7     2     3   ar
     8     3     4   ar
     9     4     5   ar
    10     5     6   ar
    11     6    23    1
    12    23    24    1
    13    24    25    1
    14    24    26    1
    15     6     7   ar
    16     7    27    1
    17    27    28    1
    18    28    29    1
    19    28    30    1
    20     7     8   ar
    21     8     9   ar
    22     9    10   ar
    23    11    14    1
    24    14    15   ar
    25    15    16   ar
    26    16    17   ar
    27    17    18   ar
    28    10     1   ar
    29    18    14   ar
    30     9     4   ar
    31    12    13    1
    32    18    19    1
@<TRIPOS>MOLECULE
*****
 30 32 0 0 0
SMALL
GASTEIGER

@<TRIPOS>ATOM
      1 C          64.9345   92.2958   11.6471 C.ar    1  UNL1        0.0070
      2 C          65.0327   91.6538   12.9992 C.ar    1  UNL1       -0.0017
      3 C          64.3043   90.3721   13.2754 C.ar    1  UNL1       -0.0001
      4 C          63.4777   89.7322   12.1996 C.ar    1  UNL1        0.0032
      5 C          62.7493   88.4504   12.4759 C.ar    1  UNL1        0.0402
      6 C          61.9227   87.8105   11.4001 C.ar    1  UNL1        0.1781
      7 C          61.8246   88.4526   10.0479 C.ar    1  UNL1        0.1781
      8 C          62.5530   89.7344    9.7717 C.ar    1  UNL1        0.0402
      9 C          63.3796   90.3742   10.8475 C.ar    1  UNL1        0.0030
     10 C          64.1080   91.6560   10.5712 C.ar    1  UNL1       -0.0016
     11 C          65.6630   93.5777   11.3708 C.3     1  UNL1        0.1426
     12 O          64.6619   93.9172   10.3066 O.3     1  UNL1       -0.3770
     13 H          64.4644   93.1245    9.7837 H       1  UNL1        0.2112
     14 C          66.6641   93.2381   12.4349 C.ar    1  UNL1        0.1019
     15 C          66.6785   93.7751   13.8355 C.ar    1  UNL1        0.1404
     16 N          67.8499   93.1708   14.5516 N.ar    1  UNL1       -0.1276
     17 N          68.5595   92.2603   13.5935 N.ar    1  UNL1       -0.0674
     18 N          67.8266   92.3020   12.2854 N.ar    1  UNL1       -0.2579
     19 H          68.0665   91.8026   11.4716 H       1  UNL1        0.1904
     20 C          67.4237   94.9162   10.0077 C.3     1  UNL1        0.0031
     21 C          66.3914   94.8595   11.0945 C.3     1  UNL1        0.0340
     22 C          66.0876   96.0846   11.9050 C.3     1  UNL1        0.0031
     23 O          61.1943   86.5288   11.6763 O.3     1  UNL1       -0.4205
     24 C          61.9651   85.2626   11.9063 C.3     1  UNL1        0.5087
     25 F          62.3655   84.4063   10.7417 F       1  UNL1       -0.1550
     26 F          62.3354   84.8528   13.3009 F       1  UNL1       -0.1550
     27 O          60.9980   87.8128    8.9721 O.3     1  UNL1       -0.4205
     28 C          61.4358   86.5141    8.3624 C.3     1  UNL1        0.5087
     29 F          62.8729   86.0926    8.4470 F       1  UNL1       -0.1550
     30 F          60.4365   85.6370    7.6680 F       1  UNL1       -0.1550
@<TRIPOS>BOND
     1    20    21    1
     2    21    22    1
     3    21    11    1
     4    11    12    1
     5    11     1    1
     6     1     2   ar
     7     2     3   ar
     8     3     4   ar
     9     4     5   ar
    10     5     6   ar
    11     6    23    1
    12    23    24    1
    13    24    25    1
    14    24    26    1
    15     6     7   ar
    16     7    27    1
    17    27    28    1
    18    28    29    1
    19    28    30    1
    20     7     8   ar
    21     8     9   ar
    22     9    10   ar
    23    11    14    1
    24    14    15   ar
    25    15    16   ar
    26    16    17   ar
    27    17    18   ar
    28    10     1   ar
    29    18    14   ar
    30     9     4   ar
    31    12    13    1
    32    18    19    1
@<TRIPOS>MOLECULE
*****
 30 32 0 0 0
SMALL
GASTEIGER

@<TRIPOS>ATOM
      1 C          62.6038   89.1426   11.4002 C.ar    1  UNL1        0.0070
      2 C          62.7769   88.4468   12.7177 C.ar    1  UNL1       -0.0017
      3 C          63.6564   89.0480   13.7735 C.ar    1  UNL1       -0.0001
      4 C          64.3629   90.3451   13.5119 C.ar    1  UNL1        0.0032
      5 C          65.2425   90.9463   14.5679 C.ar    1  UNL1        0.0402
      6 C          65.9490   92.2434   14.3063 C.ar    1  UNL1        0.1781
      7 C          65.7759   92.9392   12.9887 C.ar    1  UNL1        0.1781
      8 C          64.8963   92.3380   11.9329 C.ar    1  UNL1        0.0402
      9 C          64.1899   91.0409   12.1945 C.ar    1  UNL1        0.0030
     10 C          63.3103   90.4397   11.1386 C.ar    1  UNL1       -0.0016
     11 C          61.7242   88.5414   10.3443 C.3     1  UNL1        0.1426
     12 O          62.9359   88.0107    9.6371 O.3     1  UNL1       -0.3770
     13 H          63.6310   88.6872    9.6347 H       1  UNL1        0.2112
     14 C          60.5126   89.0722   11.0514 C.ar    1  UNL1        0.1019
     15 C          60.0339   90.4937   11.0346 C.ar    1  UNL1        0.1404
     16 N          58.7922   90.5747   11.8724 N.ar    1  UNL1       -0.1276
     17 N          58.5036   89.2032   12.4071 N.ar    1  UNL1       -0.0674
     18 N          59.5667   88.2747   11.8997 N.ar    1  UNL1       -0.2579
     19 H          59.6322   87.3109   12.0900 H       1  UNL1        0.1904
     20 C          60.1633   88.8249    8.2868 C.3     1  UNL1        0.0031
     21 C          60.8446   87.9403    9.2884 C.3     1  UNL1        0.0340
     22 C          60.6463   86.4544    9.2341 C.3     1  UNL1        0.0031
     23 O          66.8285   92.8446   15.3621 O.3     1  UNL1       -0.4205
     24 C          68.3061   92.9609   15.1306 C.3     1  UNL1        0.5087
     25 F          69.0588   94.1415   15.6686 F       1  UNL1       -0.1550
     26 F          69.0307   91.8966   14.3611 F       1  UNL1       -0.1550
     27 O          66.4824   94.2363   12.7271 O.3     1  UNL1       -0.4205
     28 C          66.1418   95.0436   11.5097 C.3     1  UNL1        0.5087
     29 F          66.8934   96.3075   11.2134 F       1  UNL1       -0.1550
     30 F          65.0496   94.5871   10.5885 F       1  UNL1       -0.1550
@<TRIPOS>BOND
     1    20    21    1
     2    21    22    1
     3    21    11    1
     4    11    12    1
     5    11     1    1
     6     1     2   ar
     7     2     3   ar
     8     3     4   ar
     9     4     5   ar
    10     5     6   ar
    11     6    23    1
    12    23    24    1
    13    24    25    1
    14    24    26    1
    15     6     7   ar
    16     7    27    1
    17    27    28    1
    18    28    29    1
    19    28    30    1
    20     7     8   ar
    21     8     9   ar
    22     9    10   ar
    23    11    14    1
    24    14    15   ar
    25    15    16   ar
    26    16    17   ar
    27    17    18   ar
    28    10     1   ar
    29    18    14   ar
    30     9     4   ar
    31    12    13    1
    32    18    19    1
@<TRIPOS>MOLECULE
*****
 30 32 0 0 0
SMALL
GASTEIGER

@<TRIPOS>ATOM
      1 C          62.5133   89.4006   10.5868 C.ar    1  UNL1        0.0070
      2 C          62.6812   90.4458    9.5241 C.ar    1  UNL1       -0.0017
      3 C          63.5261   91.6564    9.7898 C.ar    1  UNL1       -0.0001
      4 C          64.2030   91.8218   11.1181 C.ar    1  UNL1        0.0032
      5 C          65.0479   93.0326   11.3837 C.ar    1  UNL1        0.0402
      6 C          65.7248   93.1980   12.7120 C.ar    1  UNL1        0.1781
      7 C          65.5568   92.1527   13.7747 C.ar    1  UNL1        0.1781
      8 C          64.7120   90.9421   13.5091 C.ar    1  UNL1        0.0402
      9 C          64.0351   90.7766   12.1808 C.ar    1  UNL1        0.0030
     10 C          63.1903   89.5660   11.9151 C.ar    1  UNL1       -0.0016
     11 C          61.6685   88.1899   10.3212 C.3     1  UNL1        0.1426
     12 O          62.7991   87.5688    9.5557 O.3     1  UNL1       -0.3770
     13 H          63.2159   88.2402    8.9932 H       1  UNL1        0.2112
     14 C          60.5379   88.8110   11.0867 C.ar    1  UNL1        0.1019
     15 C          59.9537   90.1717   10.8476 C.ar    1  UNL1        0.1404
     16 N          58.8477   90.3821   11.8389 N.ar    1  UNL1       -0.1276
     17 N          58.7484   89.1513   12.6906 N.ar    1  UNL1       -0.0674
     18 N          59.7929   88.1803   12.2258 N.ar    1  UNL1       -0.2579
     19 H          59.9602   87.2861   12.6022 H       1  UNL1        0.1904
     20 C          59.6096   87.0890    9.1815 C.3     1  UNL1        0.0031
     21 C          60.8236   86.9793   10.0556 C.3     1  UNL1        0.0340
     22 C          61.1928   85.6588   10.6641 C.3     1  UNL1        0.0031
     23 O          66.5696   94.4086   12.9777 O.3     1  UNL1       -0.4205
     24 C          66.5451   95.5646   12.0221 C.3     1  UNL1        0.5087
     25 F          65.8885   96.8531   12.4204 F       1  UNL1       -0.1550
     26 F          67.1774   95.4322   10.6683 F       1  UNL1       -0.1550
     27 O          66.2338   92.3181   15.1030 O.3     1  UNL1       -0.4205
     28 C          67.7067   92.0652   15.2308 C.3     1  UNL1        0.5087
     29 F          68.3328   91.9497   16.5890 F       1  UNL1       -0.1550
     30 F          68.5536   91.9279   14.0004 F       1  UNL1       -0.1550
@<TRIPOS>BOND
     1    20    21    1
     2    21    22    1
     3    21    11    1
     4    11    12    1
     5    11     1    1
     6     1     2   ar
     7     2     3   ar
     8     3     4   ar
     9     4     5   ar
    10     5     6   ar
    11     6    23    1
    12    23    24    1
    13    24    25    1
    14    24    26    1
    15     6     7   ar
    16     7    27    1
    17    27    28    1
    18    28    29    1
    19    28    30    1
    20     7     8   ar
    21     8     9   ar
    22     9    10   ar
    23    11    14    1
    24    14    15   ar
    25    15    16   ar
    26    16    17   ar
    27    17    18   ar
    28    10     1   ar
    29    18    14   ar
    30     9     4   ar
    31    12    13    1
    32    18    19    1
