@<TRIPOS>MOLECULE
*****
 50 50 0 0 0
SMALL
GASTEIGER

@<TRIPOS>ATOM
      1 C          66.1204   93.0046   11.1103 C.3     1  UNL1        0.0939
      2 C          66.2914   93.2171   12.5853 C.3     1  UNL1        0.1757
      3 O          66.4381   94.6067   13.1307 O.3     1  UNL1       -0.3696
      4 H          66.4009   95.2458   12.4019 H       1  UNL1        0.2119
      5 N          66.3157   92.0402   13.5148 N.3     1  UNL1       -0.2716
      6 H          67.2781   91.9396   13.8375 H       1  UNL1        0.1257
      7 CA         65.4460   92.0315   14.7370 C.3     1  UNL1        0.0971
      8 C          65.9188   92.6911   15.9985 C.2     1  UNL1        0.0650
      9 O          65.0409   92.6998   17.2147 O.co2   1  UNL1       -0.5478
     10 OXT        67.2695   93.3420   16.0438 O.co2   1  UNL1       -0.5478
     11 C          64.1037   91.3633   14.6976 C.3     1  UNL1        0.0478
     12 C          63.9577   89.9454   15.1646 C.ar    1  UNL1       -0.0203
     13 C          64.5036   88.8222   14.3338 C.ar    1  UNL1       -0.0011
     14 C          64.3576   87.4042   14.8008 C.ar    1  UNL1        0.0366
     15 C          63.6658   87.1095   16.0986 C.ar    1  UNL1        0.1385
     16 C          63.1199   88.2327   16.9295 C.ar    1  UNL1        0.0366
     17 C          63.2658   89.6507   16.4624 C.ar    1  UNL1       -0.0011
     18 O          63.5198   85.6915   16.5657 O.3     1  UNL1       -0.4755
     19 C          62.2999   84.9015   16.1947 C.3     1  UNL1        0.2054
     20 C          62.3581   83.9192   15.0626 C.3     1  UNL1        0.0473
     21 C          63.2353   84.1925   13.8768 C.3     1  UNL1        0.0038
     22 C          64.7247   84.0642   14.0002 C.3     1  UNL1        0.0001
     23 C          66.7627   93.9482   10.1371 C.3     1  UNL1        0.1294
     24 O          65.6658   94.9427   10.3774 O.3     1  UNL1       -0.3810
     25 H          65.8101   95.7240    9.8209 H       1  UNL1        0.2107
     26 C          67.8596   92.9537    9.8969 C.2     1  UNL1        0.0749
     27 O          68.2817   92.6266    8.4952 O.co2   1  UNL1       -0.5468
     28 O          68.5345   92.2863   11.0583 O.co2   1  UNL1       -0.5468
     29 C          67.4051   94.8918    9.1640 C.3     1  UNL1        0.0648
     30 C          67.0612   96.3514    9.1963 C.3     1  UNL1        0.1451
     31 O          65.8517   96.8534    8.4648 O.3     1  UNL1       -0.3510
     32 C          65.8009   96.7896    6.9670 C.3     1  UNL1        0.1741
     33 C          63.8592   91.7316   10.9826 C.2     1  UNL1       -0.0305
     34 C          65.3070   91.8485   10.6085 C.2     1  UNL1       -0.0245
     35 C          63.0458   90.5755   10.4808 C.3     1  UNL1        0.0257
     36 C          61.5496   90.6120   10.5798 C.3     1  UNL1        0.0047
     37 C          60.8639   90.0470   11.7884 C.3     1  UNL1        0.0003
     38 C          59.6888   89.1294   11.6236 C.3     1  UNL1        0.0002
     39 C          59.8858   87.7514   11.0650 C.3     1  UNL1        0.0056
     40 C          60.5049   87.5725    9.7105 C.3     1  UNL1        0.0666
     41 C          61.6395   86.6089    9.5258 C.3     1  UNL1        0.2639
     42 F          60.9669   86.0506    8.3069 F       1  UNL1       -0.2043
     43 F          62.3122   87.1673   10.7447 F       1  UNL1       -0.2043
     44 C          62.7741   85.6453    9.3410 C.3     1  UNL1        0.0666
     45 C          62.8895   84.4431   10.2306 C.3     1  UNL1        0.0056
     46 C          63.9860   83.4449   10.0041 C.3     1  UNL1        0.0002
     47 C          63.8673   82.0596   10.5670 C.3     1  UNL1        0.0000
     48 C          62.8649   81.7716   11.6450 C.3     1  UNL1        0.0000
     49 C          62.0175   80.1185   13.4615 C.3     1  UNL1        0.0000
     50 C          63.1434   80.7054   12.6627 C.3     1  UNL1        0.0000
@<TRIPOS>UNITY_ATOM_ATTR
9 1
charge -1
27 1
charge -1
@<TRIPOS>BOND
     1    49    50    1
     2    50    48    1
     3    48    47    1
     4    47    46    1
     5    46    45    1
     6    45    44    1
     7    44    41    1
     8    41    42    1
     9    41    43    1
    10    41    40    1
    11    40    39    1
    12    39    38    1
    13    38    37    1
    14    37    36    1
    15    36    35    1
    16    35    33    1
    17    33    34    2
    18    34     1    1
    19     1     2    1
    20     2     3    1
    21     2     5    1
    22     5     7    1
    23     7    11    1
    24    11    12    1
    25    12    13   ar
    26    13    14   ar
    27    14    15   ar
    28    15    18    1
    29    18    19    1
    30    19    20    1
    31    20    21    1
    32    21    22    1
    33    15    16   ar
    34    16    17   ar
    35     7     8    1
    36     8     9   ar
    37     8    10   ar
    38     1    23    1
    39    23    24    1
    40    23    29    1
    41    29    30    1
    42    30    31    1
    43    31    32    1
    44    23    26    1
    45    26    27   ar
    46    26    28   ar
    47    17    12   ar
    48     3     4    1
    49     5     6    1
    50    24    25    1
@<TRIPOS>MOLECULE
*****
 50 50 0 0 0
SMALL
GASTEIGER

@<TRIPOS>ATOM
      1 C          66.1285   92.6624   12.1698 C.3     1  UNL1        0.0939
      2 C          66.8341   92.3217   13.4490 C.3     1  UNL1        0.1757
      3 O          68.0341   93.1132   13.8773 O.3     1  UNL1       -0.3696
      4 H          68.2184   93.8023   13.2200 H       1  UNL1        0.2119
      5 N          66.3398   91.1895   14.2996 N.3     1  UNL1       -0.2716
      6 H          67.1338   90.8693   14.8541 H       1  UNL1        0.1257
      7 CA         65.2048   91.4095   15.2554 C.3     1  UNL1        0.0971
      8 C          65.3636   92.3645   16.4012 C.2     1  UNL1        0.0650
      9 O          66.7037   92.9731   16.6900 O.co2   1  UNL1       -0.5478
     10 OXT        64.1822   92.7107   17.2582 O.co2   1  UNL1       -0.5478
     11 C          63.9110   90.6746   15.0654 C.3     1  UNL1        0.0478
     12 C          63.8268   89.2105   15.3804 C.ar    1  UNL1       -0.0203
     13 C          63.1494   88.7516   16.6375 C.ar    1  UNL1       -0.0011
     14 C          63.0652   87.2875   16.9526 C.ar    1  UNL1        0.0366
     15 C          63.6584   86.2823   16.0105 C.ar    1  UNL1        0.1385
     16 C          64.3359   86.7412   14.7534 C.ar    1  UNL1        0.0366
     17 C          64.4201   88.2053   14.4384 C.ar    1  UNL1       -0.0011
     18 O          63.5742   84.8182   16.3256 O.3     1  UNL1       -0.4755
     19 C          63.5055   83.8143   15.2132 C.3     1  UNL1        0.2054
     20 C          62.1746   83.3109   14.7384 C.3     1  UNL1        0.0473
     21 C          61.9555   81.8398   14.5431 C.3     1  UNL1        0.0038
     22 C          61.9441   81.2604   13.1596 C.3     1  UNL1        0.0001
     23 C          66.5751   93.8421   11.3582 C.3     1  UNL1        0.1294
     24 O          65.7106   94.7420   12.1905 O.3     1  UNL1       -0.3810
     25 H          65.7811   95.6521   11.8623 H       1  UNL1        0.2107
     26 C          67.4397   92.9421   10.5259 C.2     1  UNL1        0.0749
     27 O          67.3604   93.0002    9.0291 O.co2   1  UNL1       -0.5468
     28 O          68.3835   91.9842   11.1903 O.co2   1  UNL1       -0.5468
     29 C          67.0218   95.0218   10.5465 C.3     1  UNL1        0.0648
     30 C          66.0763   96.1580   10.2917 C.3     1  UNL1        0.1451
     31 O          66.0821   96.8551    8.9635 O.3     1  UNL1       -0.3510
     32 C          66.3948   96.0861    7.7142 C.3     1  UNL1        0.1741
     33 C          64.2658   92.1686   10.4273 C.2     1  UNL1       -0.0305
     34 C          64.9763   91.8234   11.7024 C.2     1  UNL1       -0.0245
     35 C          63.1136   91.3296    9.9599 C.3     1  UNL1        0.0257
     36 C          63.1259   89.8466   10.1847 C.3     1  UNL1        0.0047
     37 C          62.5264   89.2724   11.4341 C.3     1  UNL1        0.0003
     38 C          61.3992   89.9848   12.1210 C.3     1  UNL1        0.0002
     39 C          60.0266   89.9752   11.5162 C.3     1  UNL1        0.0056
     40 C          59.8571   89.7410   10.0443 C.3     1  UNL1        0.0666
     41 C          59.8814   88.3437    9.4996 C.3     1  UNL1        0.2639
     42 F          60.3456   88.8687    8.1734 F       1  UNL1       -0.2043
     43 F          59.4173   87.8186   10.8258 F       1  UNL1       -0.2043
     44 C          59.9058   86.9463    8.9548 C.3     1  UNL1        0.0666
     45 C          61.2143   86.2963    8.6153 C.3     1  UNL1        0.0056
     46 C          62.2937   86.1970    9.6522 C.3     1  UNL1        0.0002
     47 C          62.1198   85.2861   10.8311 C.3     1  UNL1        0.0000
     48 C          63.3125   84.8704   11.6401 C.3     1  UNL1        0.0000
     49 C          64.1577   82.9608   10.0945 C.3     1  UNL1        0.0000
     50 C          63.8929   83.4977   11.4698 C.3     1  UNL1        0.0000
@<TRIPOS>UNITY_ATOM_ATTR
9 1
charge -1
27 1
charge -1
@<TRIPOS>BOND
     1    49    50    1
     2    50    48    1
     3    48    47    1
     4    47    46    1
     5    46    45    1
     6    45    44    1
     7    44    41    1
     8    41    42    1
     9    41    43    1
    10    41    40    1
    11    40    39    1
    12    39    38    1
    13    38    37    1
    14    37    36    1
    15    36    35    1
    16    35    33    1
    17    33    34    2
    18    34     1    1
    19     1     2    1
    20     2     3    1
    21     2     5    1
    22     5     7    1
    23     7    11    1
    24    11    12    1
    25    12    13   ar
    26    13    14   ar
    27    14    15   ar
    28    15    18    1
    29    18    19    1
    30    19    20    1
    31    20    21    1
    32    21    22    1
    33    15    16   ar
    34    16    17   ar
    35     7     8    1
    36     8     9   ar
    37     8    10   ar
    38     1    23    1
    39    23    24    1
    40    23    29    1
    41    29    30    1
    42    30    31    1
    43    31    32    1
    44    23    26    1
    45    26    27   ar
    46    26    28   ar
    47    17    12   ar
    48     3     4    1
    49     5     6    1
    50    24    25    1
@<TRIPOS>MOLECULE
*****
 50 50 0 0 0
SMALL
GASTEIGER

@<TRIPOS>ATOM
      1 C          61.7876   85.9863   10.0072 C.3     1  UNL1        0.0939
      2 C          62.3228   87.1820   10.7380 C.3     1  UNL1        0.1757
      3 O          62.5757   87.1072   12.2146 O.3     1  UNL1       -0.3696
      4 H          62.3425   86.2230   12.5382 H       1  UNL1        0.2119
      5 N          62.6050   88.4524    9.9922 N.3     1  UNL1       -0.2716
      6 H          62.2449   88.3248    9.0464 H       1  UNL1        0.1257
      7 CA         62.0539   89.7545   10.4933 C.3     1  UNL1        0.0971
      8 C          60.8261   89.7674   11.3548 C.2     1  UNL1        0.0650
      9 O          60.9494   89.5880   12.8389 O.co2   1  UNL1       -0.5478
     10 OXT        59.4750   89.9596   10.7323 O.co2   1  UNL1       -0.5478
     11 C          62.7307   91.0437   10.1327 C.3     1  UNL1        0.0478
     12 C          63.9013   91.5267   10.9368 C.ar    1  UNL1       -0.0203
     13 C          64.9027   92.4571   10.3192 C.ar    1  UNL1       -0.0011
     14 C          66.0733   92.9401   11.1232 C.ar    1  UNL1        0.0366
     15 C          66.2424   92.4927   12.5449 C.ar    1  UNL1        0.1385
     16 C          65.2410   91.5623   13.1625 C.ar    1  UNL1        0.0366
     17 C          64.0704   91.0793   12.3585 C.ar    1  UNL1       -0.0011
     18 O          67.4130   92.9757   13.3489 O.3     1  UNL1       -0.4755
     19 C          68.1760   92.0164   14.2135 C.3     1  UNL1        0.2054
     20 C          67.9616   92.0110   15.6980 C.3     1  UNL1        0.0473
     21 C          66.8935   92.8720   16.3047 C.3     1  UNL1        0.0038
     22 C          65.4937   92.3494   16.4363 C.3     1  UNL1        0.0001
     23 C          60.8261   86.1703    8.8707 C.3     1  UNL1        0.1294
     24 O          59.8388   86.8001    9.8081 O.3     1  UNL1       -0.3810
     25 H          59.0319   87.0298    9.3212 H       1  UNL1        0.2107
     26 C          61.8134   85.5406    7.9334 C.2     1  UNL1        0.0749
     27 O          61.3339   84.6451    6.8298 O.co2   1  UNL1       -0.5468
     28 O          63.2802   85.8064    8.0997 O.co2   1  UNL1       -0.5468
     29 C          59.8645   86.3544    7.7343 C.3     1  UNL1        0.0648
     30 C          58.9862   87.5693    7.6843 C.3     1  UNL1        0.1451
     31 O          59.5957   88.9287    7.5096 O.3     1  UNL1       -0.3510
     32 C          59.2880   89.7368    6.2840 C.3     1  UNL1        0.1741
     33 C          63.5968   84.3754   10.9463 C.2     1  UNL1       -0.0305
     34 C          62.2141   84.6066   10.4129 C.2     1  UNL1       -0.0245
     35 C          64.0233   82.9958   11.3519 C.3     1  UNL1        0.0257
     36 C          63.1646   81.8144   11.0098 C.3     1  UNL1        0.0047
     37 C          62.6654   80.9099   12.0974 C.3     1  UNL1        0.0003
     38 C          62.9611   81.2291   13.5329 C.3     1  UNL1        0.0002
     39 C          62.0573   82.1499   14.2980 C.3     1  UNL1        0.0056
     40 C          62.6380   83.1358   15.2678 C.3     1  UNL1        0.0666
     41 C          63.6274   84.1593   14.7949 C.3     1  UNL1        0.2639
     42 F          62.5314   84.8846   14.0719 F       1  UNL1       -0.2043
     43 F          64.7233   83.4339   15.5179 F       1  UNL1       -0.2043
     44 C          64.6167   85.1828   14.3220 C.3     1  UNL1        0.0666
     45 C          64.8235   86.4445   15.1064 C.3     1  UNL1        0.0056
     46 C          64.3563   87.7576   14.5517 C.3     1  UNL1        0.0002
     47 C          64.0129   88.8845   15.4802 C.3     1  UNL1        0.0000
     48 C          62.9095   88.7203   16.4830 C.3     1  UNL1        0.0000
     49 C          62.2566   86.4155   17.4887 C.3     1  UNL1        0.0000
     50 C          63.0324   87.6965   17.5724 C.3     1  UNL1        0.0000
@<TRIPOS>UNITY_ATOM_ATTR
9 1
charge -1
27 1
charge -1
@<TRIPOS>BOND
     1    49    50    1
     2    50    48    1
     3    48    47    1
     4    47    46    1
     5    46    45    1
     6    45    44    1
     7    44    41    1
     8    41    42    1
     9    41    43    1
    10    41    40    1
    11    40    39    1
    12    39    38    1
    13    38    37    1
    14    37    36    1
    15    36    35    1
    16    35    33    1
    17    33    34    2
    18    34     1    1
    19     1     2    1
    20     2     3    1
    21     2     5    1
    22     5     7    1
    23     7    11    1
    24    11    12    1
    25    12    13   ar
    26    13    14   ar
    27    14    15   ar
    28    15    18    1
    29    18    19    1
    30    19    20    1
    31    20    21    1
    32    21    22    1
    33    15    16   ar
    34    16    17   ar
    35     7     8    1
    36     8     9   ar
    37     8    10   ar
    38     1    23    1
    39    23    24    1
    40    23    29    1
    41    29    30    1
    42    30    31    1
    43    31    32    1
    44    23    26    1
    45    26    27   ar
    46    26    28   ar
    47    17    12   ar
    48     3     4    1
    49     5     6    1
    50    24    25    1
@<TRIPOS>MOLECULE
*****
 50 50 0 0 0
SMALL
GASTEIGER

@<TRIPOS>ATOM
      1 C          61.7436   86.0516    9.4745 C.3     1  UNL1        0.0939
      2 C          61.7558   86.8875   10.7199 C.3     1  UNL1        0.1757
      3 O          61.0377   86.4133   11.9485 O.3     1  UNL1       -0.3696
      4 H          60.6216   85.5557   11.7690 H       1  UNL1        0.2119
      5 N          62.4860   88.1977   10.7367 N.3     1  UNL1       -0.2716
      6 H          62.5222   88.5270    9.7720 H       1  UNL1        0.1257
      7 CA         61.9654   89.3359   11.5636 C.3     1  UNL1        0.0971
      8 C          60.6158   89.9207   11.2694 C.2     1  UNL1        0.0650
      9 O          60.2770   90.3618    9.8763 O.co2   1  UNL1       -0.5478
     10 OXT        59.6050   90.0645   12.3684 O.co2   1  UNL1       -0.5478
     11 C          62.7944   89.8892   12.6844 C.3     1  UNL1        0.0478
     12 C          63.8282   90.9396   12.4050 C.ar    1  UNL1       -0.0203
     13 C          64.7352   91.4102   13.5031 C.ar    1  UNL1       -0.0011
     14 C          65.7689   92.4606   13.2237 C.ar    1  UNL1        0.0366
     15 C          65.8957   93.0404   11.8461 C.ar    1  UNL1        0.1385
     16 C          64.9887   92.5698   10.7480 C.ar    1  UNL1        0.0366
     17 C          63.9549   91.5194   11.0275 C.ar    1  UNL1       -0.0011
     18 O          66.9294   94.0908   11.5667 O.3     1  UNL1       -0.4755
     19 C          66.8049   94.9610   10.3514 C.3     1  UNL1        0.2054
     20 C          67.7578   94.7901    9.2056 C.3     1  UNL1        0.0473
     21 C          67.9942   93.4280    8.6236 C.3     1  UNL1        0.0038
     22 C          68.9253   92.4713    9.3077 C.3     1  UNL1        0.0001
     23 C          60.7337   86.3226    8.3991 C.3     1  UNL1        0.1294
     24 O          59.9638   87.1982    9.3428 O.3     1  UNL1       -0.3810
     25 H          59.1715   87.5362    8.8968 H       1  UNL1        0.2107
     26 C          61.5036   85.4470    7.4553 C.2     1  UNL1        0.0749
     27 O          63.0017   85.5142    7.4231 O.co2   1  UNL1       -0.5468
     28 O          60.7753   84.5043    6.5439 O.co2   1  UNL1       -0.5468
     29 C          59.7238   86.5937    7.3236 C.3     1  UNL1        0.0648
     30 C          58.9634   87.8867    7.3175 C.3     1  UNL1        0.1451
     31 O          59.6653   89.1679    6.9771 O.3     1  UNL1       -0.3510
     32 C          59.1088   90.0686    5.9146 C.3     1  UNL1        0.1741
     33 C          63.2080   84.1655   10.4984 C.2     1  UNL1       -0.0305
     34 C          62.7414   84.9446    9.3045 C.2     1  UNL1       -0.0245
     35 C          64.2058   83.0585   10.3284 C.3     1  UNL1        0.0257
     36 C          64.2386   81.9217   11.3064 C.3     1  UNL1        0.0047
     37 C          62.9697   81.2106   11.6727 C.3     1  UNL1        0.0003
     38 C          62.7230   80.8011   13.0945 C.3     1  UNL1        0.0002
     39 C          61.8249   81.6263   13.9676 C.3     1  UNL1        0.0056
     40 C          62.4150   82.6204   14.9234 C.3     1  UNL1        0.0666
     41 C          63.3833   83.6534   14.4283 C.3     1  UNL1        0.2639
     42 F          64.4016   83.1741   15.4198 F       1  UNL1       -0.2043
     43 F          62.3650   84.1327   13.4368 F       1  UNL1       -0.2043
     44 C          64.3518   84.6864   13.9332 C.3     1  UNL1        0.0666
     45 C          63.9913   86.1413   13.9913 C.3     1  UNL1        0.0056
     46 C          64.6332   87.0327   15.0129 C.3     1  UNL1        0.0002
     47 C          63.9974   88.3436   15.3697 C.3     1  UNL1        0.0000
     48 C          63.0638   88.4301   16.5406 C.3     1  UNL1        0.0000
     49 C          62.2581   86.0643   17.2504 C.3     1  UNL1        0.0000
     50 C          63.0210   87.3207   17.5493 C.3     1  UNL1        0.0000
@<TRIPOS>UNITY_ATOM_ATTR
9 1
charge -1
27 1
charge -1
@<TRIPOS>BOND
     1    49    50    1
     2    50    48    1
     3    48    47    1
     4    47    46    1
     5    46    45    1
     6    45    44    1
     7    44    41    1
     8    41    42    1
     9    41    43    1
    10    41    40    1
    11    40    39    1
    12    39    38    1
    13    38    37    1
    14    37    36    1
    15    36    35    1
    16    35    33    1
    17    33    34    2
    18    34     1    1
    19     1     2    1
    20     2     3    1
    21     2     5    1
    22     5     7    1
    23     7    11    1
    24    11    12    1
    25    12    13   ar
    26    13    14   ar
    27    14    15   ar
    28    15    18    1
    29    18    19    1
    30    19    20    1
    31    20    21    1
    32    21    22    1
    33    15    16   ar
    34    16    17   ar
    35     7     8    1
    36     8     9   ar
    37     8    10   ar
    38     1    23    1
    39    23    24    1
    40    23    29    1
    41    29    30    1
    42    30    31    1
    43    31    32    1
    44    23    26    1
    45    26    27   ar
    46    26    28   ar
    47    17    12   ar
    48     3     4    1
    49     5     6    1
    50    24    25    1
@<TRIPOS>MOLECULE
*****
 50 50 0 0 0
SMALL
GASTEIGER

@<TRIPOS>ATOM
      1 C          65.5021   92.6286   11.2781 C.3     1  UNL1        0.0939
      2 C          65.7347   92.7679   12.7534 C.3     1  UNL1        0.1757
      3 O          65.9510   94.1254   13.3537 O.3     1  UNL1       -0.3696
      4 H          65.9100   94.7978   12.6557 H       1  UNL1        0.2119
      5 N          65.7510   91.5497   13.6284 N.3     1  UNL1       -0.2716
      6 H          66.7299   91.3427   13.8268 H       1  UNL1        0.1257
      7 CA         65.0356   91.5636   14.9468 C.3     1  UNL1        0.0971
      8 C          65.6212   92.3077   16.1101 C.2     1  UNL1        0.0650
      9 O          67.0189   92.8461   16.0291 O.co2   1  UNL1       -0.5478
     10 OXT        64.8092   92.5133   17.3545 O.co2   1  UNL1       -0.5478
     11 C          63.7346   90.8334   15.1018 C.3     1  UNL1        0.0478
     12 C          63.7302   89.3588   15.3770 C.ar    1  UNL1       -0.0203
     13 C          64.3505   88.4106   14.3941 C.ar    1  UNL1       -0.0011
     14 C          64.3462   86.9361   14.6693 C.ar    1  UNL1        0.0366
     15 C          63.7216   86.4098   15.9274 C.ar    1  UNL1        0.1385
     16 C          63.1013   87.3580   16.9103 C.ar    1  UNL1        0.0366
     17 C          63.1056   88.8325   16.6351 C.ar    1  UNL1       -0.0011
     18 O          63.7173   84.9352   16.2026 O.3     1  UNL1       -0.4755
     19 C          62.7897   84.0333   15.4436 C.3     1  UNL1        0.2054
     20 C          63.2265   83.4343   14.1396 C.3     1  UNL1        0.0473
     21 C          62.8685   84.1075   12.8477 C.3     1  UNL1        0.0038
     22 C          63.1810   83.4388   11.5419 C.3     1  UNL1        0.0001
     23 C          66.3116   93.4408   10.3112 C.3     1  UNL1        0.1294
     24 O          65.1751   94.4102   10.1740 O.3     1  UNL1       -0.3810
     25 H          65.4162   95.1033    9.5397 H       1  UNL1        0.2107
     26 C          67.4481   92.4715   10.4484 C.2     1  UNL1        0.0749
     27 O          68.1070   92.2721   11.7811 O.co2   1  UNL1       -0.5468
     28 O          67.9257   91.7016    9.2530 O.co2   1  UNL1       -0.5468
     29 C          67.1212   94.2531    9.3443 C.3     1  UNL1        0.0648
     30 C          67.2075   95.7421    9.5039 C.3     1  UNL1        0.1451
     31 O          66.1477   96.6226    8.9109 O.3     1  UNL1       -0.3510
     32 C          66.0005   96.7201    7.4214 C.3     1  UNL1        0.1741
     33 C          63.1180   91.6084   11.4363 C.2     1  UNL1       -0.0305
     34 C          64.4600   91.6770   10.7697 C.2     1  UNL1       -0.0245
     35 C          62.0758   90.6568   10.9279 C.3     1  UNL1        0.0257
     36 C          62.4767   89.2964   10.4396 C.3     1  UNL1        0.0047
     37 C          61.5231   88.4850    9.6135 C.3     1  UNL1        0.0003
     38 C          60.3776   89.1558    8.9150 C.3     1  UNL1        0.0002
     39 C          60.2772   89.1040    7.4193 C.3     1  UNL1        0.0056
     40 C          58.9691   89.3943    6.7450 C.3     1  UNL1        0.0666
     41 C          58.8719   90.5077    5.7446 C.3     1  UNL1        0.2639
     42 F          57.3808   90.5233    5.9070 F       1  UNL1       -0.2043
     43 F          60.3629   90.4921    5.5823 F       1  UNL1       -0.2043
     44 C          58.7745   91.6213    4.7442 C.3     1  UNL1        0.0666
     45 C          60.0176   92.1679    4.1071 C.3     1  UNL1        0.0056
     46 C          59.9129   93.0985    2.9353 C.3     1  UNL1        0.0002
     47 C          61.0464   93.2055    1.9589 C.3     1  UNL1        0.0000
     48 C          62.0440   92.0913    1.8429 C.3     1  UNL1        0.0000
     49 C          63.6373   90.6394    3.2933 C.3     1  UNL1        0.0000
     50 C          63.1697   91.9869    2.8289 C.3     1  UNL1        0.0000
@<TRIPOS>UNITY_ATOM_ATTR
9 1
charge -1
27 1
charge -1
@<TRIPOS>BOND
     1    49    50    1
     2    50    48    1
     3    48    47    1
     4    47    46    1
     5    46    45    1
     6    45    44    1
     7    44    41    1
     8    41    42    1
     9    41    43    1
    10    41    40    1
    11    40    39    1
    12    39    38    1
    13    38    37    1
    14    37    36    1
    15    36    35    1
    16    35    33    1
    17    33    34    2
    18    34     1    1
    19     1     2    1
    20     2     3    1
    21     2     5    1
    22     5     7    1
    23     7    11    1
    24    11    12    1
    25    12    13   ar
    26    13    14   ar
    27    14    15   ar
    28    15    18    1
    29    18    19    1
    30    19    20    1
    31    20    21    1
    32    21    22    1
    33    15    16   ar
    34    16    17   ar
    35     7     8    1
    36     8     9   ar
    37     8    10   ar
    38     1    23    1
    39    23    24    1
    40    23    29    1
    41    29    30    1
    42    30    31    1
    43    31    32    1
    44    23    26    1
    45    26    27   ar
    46    26    28   ar
    47    17    12   ar
    48     3     4    1
    49     5     6    1
    50    24    25    1
@<TRIPOS>MOLECULE
*****
 50 50 0 0 0
SMALL
GASTEIGER

@<TRIPOS>ATOM
      1 C          62.3885   89.6053   11.4905 C.3     1  UNL1        0.0939
      2 C          62.9392   88.4154   12.2192 C.3     1  UNL1        0.1757
      3 O          62.3052   87.0676   12.0415 O.3     1  UNL1       -0.3696
      4 H          61.5577   87.1404   11.4276 H       1  UNL1        0.2119
      5 N          64.1238   88.5733   13.1256 N.3     1  UNL1       -0.2716
      6 H          64.5600   89.4641   12.8877 H       1  UNL1        0.1257
      7 CA         63.9356   88.5671   14.6138 C.3     1  UNL1        0.0971
      8 C          63.1469   89.6586   15.2745 C.2     1  UNL1        0.0650
      9 O          61.9321   89.3198   16.0867 O.co2   1  UNL1       -0.5478
     10 OXT        63.5729   91.0889   15.1231 O.co2   1  UNL1       -0.5478
     11 C          64.5362   87.4696   15.4412 C.3     1  UNL1        0.0478
     12 C          64.1398   86.0436   15.1970 C.ar    1  UNL1       -0.0203
     13 C          62.9313   85.4739   15.8789 C.ar    1  UNL1       -0.0011
     14 C          62.5349   84.0479   15.6347 C.ar    1  UNL1        0.0366
     15 C          63.3470   83.1918   14.7088 C.ar    1  UNL1        0.1385
     16 C          64.5555   83.7615   14.0269 C.ar    1  UNL1        0.0366
     17 C          64.9519   85.1875   14.2711 C.ar    1  UNL1       -0.0011
     18 O          62.9506   81.7659   14.4646 O.3     1  UNL1       -0.4755
     19 C          63.1848   81.1419   13.1209 C.3     1  UNL1        0.2054
     20 C          62.7152   81.8386   11.8783 C.3     1  UNL1        0.0473
     21 C          63.6160   81.9270   10.6820 C.3     1  UNL1        0.0038
     22 C          64.0847   83.2654   10.1933 C.3     1  UNL1        0.0001
     23 C          61.3224   89.4210   10.4514 C.3     1  UNL1        0.1294
     24 O          62.3468   88.8853    9.4955 O.3     1  UNL1       -0.3810
     25 H          61.9212   88.6762    8.6493 H       1  UNL1        0.2107
     26 C          60.2981   89.9567   11.4073 C.2     1  UNL1        0.0749
     27 O          60.1059   89.3040   12.7441 O.co2   1  UNL1       -0.5468
     28 O          59.4660   91.1452   11.0265 O.co2   1  UNL1       -0.5468
     29 C          60.2564   89.2367    9.4124 C.3     1  UNL1        0.0648
     30 C          59.8573   87.8558    8.9840 C.3     1  UNL1        0.1451
     31 O          60.5632   86.6607    9.5528 O.3     1  UNL1       -0.3510
     32 C          61.4660   85.8381    8.6820 C.3     1  UNL1        0.1741
     33 C          64.1347   91.4917   11.1134 C.2     1  UNL1       -0.0305
     34 C          62.9038   90.9793   11.8008 C.2     1  UNL1       -0.0245
     35 C          64.6500   92.8657   11.4237 C.3     1  UNL1        0.0257
     36 C          65.2002   93.7262   10.3251 C.3     1  UNL1        0.0047
     37 C          66.1061   94.8755   10.6549 C.3     1  UNL1        0.0003
     38 C          67.3479   95.1076    9.8463 C.3     1  UNL1        0.0002
     39 C          67.5456   94.3798    8.5497 C.3     1  UNL1        0.0056
     40 C          68.2462   93.0536    8.5333 C.3     1  UNL1        0.0666
     41 C          68.4150   92.2787    9.8064 C.3     1  UNL1        0.2639
     42 F          69.7257   92.9660   10.0509 F       1  UNL1       -0.2043
     43 F          67.1044   91.5914    9.5619 F       1  UNL1       -0.2043
     44 C          68.5839   91.5038   11.0796 C.3     1  UNL1        0.0666
     45 C          68.3397   92.1700   12.4011 C.3     1  UNL1        0.0056
     46 C          67.1706   91.7562   13.2451 C.3     1  UNL1        0.0002
     47 C          66.6818   92.6552   14.3418 C.3     1  UNL1        0.0000
     48 C          67.0570   92.3727   15.7663 C.3     1  UNL1        0.0000
     49 C          69.1837   93.8561   15.9300 C.3     1  UNL1        0.0000
     50 C          68.4728   92.5680   16.2219 C.3     1  UNL1        0.0000
@<TRIPOS>UNITY_ATOM_ATTR
9 1
charge -1
27 1
charge -1
@<TRIPOS>BOND
     1    49    50    1
     2    50    48    1
     3    48    47    1
     4    47    46    1
     5    46    45    1
     6    45    44    1
     7    44    41    1
     8    41    42    1
     9    41    43    1
    10    41    40    1
    11    40    39    1
    12    39    38    1
    13    38    37    1
    14    37    36    1
    15    36    35    1
    16    35    33    1
    17    33    34    2
    18    34     1    1
    19     1     2    1
    20     2     3    1
    21     2     5    1
    22     5     7    1
    23     7    11    1
    24    11    12    1
    25    12    13   ar
    26    13    14   ar
    27    14    15   ar
    28    15    18    1
    29    18    19    1
    30    19    20    1
    31    20    21    1
    32    21    22    1
    33    15    16   ar
    34    16    17   ar
    35     7     8    1
    36     8     9   ar
    37     8    10   ar
    38     1    23    1
    39    23    24    1
    40    23    29    1
    41    29    30    1
    42    30    31    1
    43    31    32    1
    44    23    26    1
    45    26    27   ar
    46    26    28   ar
    47    17    12   ar
    48     3     4    1
    49     5     6    1
    50    24    25    1
@<TRIPOS>MOLECULE
*****
 50 50 0 0 0
SMALL
GASTEIGER

@<TRIPOS>ATOM
      1 C          63.8909   85.1608   14.7460 C.3     1  UNL1        0.0939
      2 C          64.6467   83.8921   14.4828 C.3     1  UNL1        0.1757
      3 O          64.9633   82.9593   15.6141 O.3     1  UNL1       -0.3696
      4 H          64.6110   83.3231   16.4414 H       1  UNL1        0.2119
      5 N          65.0859   83.5562   13.0885 N.3     1  UNL1       -0.2716
      6 H          65.9888   83.0887   13.1688 H       1  UNL1        0.1257
      7 CA         64.2246   82.6883   12.2195 C.3     1  UNL1        0.0971
      8 C          63.4296   81.5715   12.8282 C.2     1  UNL1        0.0650
      9 O          64.0263   80.7350   13.9210 O.co2   1  UNL1       -0.5478
     10 OXT        62.0377   81.2911   12.3441 O.co2   1  UNL1       -0.5478
     11 C          64.1585   82.9373   10.7418 C.3     1  UNL1        0.0478
     12 C          63.3116   84.0537   10.2065 C.ar    1  UNL1       -0.0203
     13 C          62.3126   84.7307   11.0973 C.ar    1  UNL1       -0.0011
     14 C          61.4657   85.8471   10.5620 C.ar    1  UNL1        0.0366
     15 C          61.6178   86.2864    9.1359 C.ar    1  UNL1        0.1385
     16 C          62.6168   85.6094    8.2451 C.ar    1  UNL1        0.0366
     17 C          63.4637   84.4930    8.7804 C.ar    1  UNL1       -0.0011
     18 O          60.7710   87.4028    8.6006 O.3     1  UNL1       -0.4755
     19 C          59.9753   88.2581    9.5415 C.3     1  UNL1        0.2054
     20 C          60.4192   89.6598    9.8385 C.3     1  UNL1        0.0473
     21 C          59.8055   90.4148   10.9802 C.3     1  UNL1        0.0038
     22 C          59.3456   89.6799   12.2043 C.3     1  UNL1        0.0001
     23 C          63.4184   85.4782   16.1339 C.3     1  UNL1        0.1294
     24 O          64.7493   86.0959   16.4457 O.3     1  UNL1       -0.3810
     25 H          64.7550   86.4045   17.3653 H       1  UNL1        0.2107
     26 C          62.0876   84.8605   15.8220 C.2     1  UNL1        0.0749
     27 O          60.8236   85.5517   16.2397 O.co2   1  UNL1       -0.5468
     28 O          62.0207   83.5516   15.0925 O.co2   1  UNL1       -0.5468
     29 C          62.9460   85.7955   17.5217 C.3     1  UNL1        0.0648
     30 C          62.7112   87.2206   17.9265 C.3     1  UNL1        0.1451
     31 O          62.4065   88.2558   16.8846 O.3     1  UNL1       -0.3510
     32 C          63.2369   89.5022   16.8004 C.3     1  UNL1        0.1741
     33 C          63.8865   87.5763   13.7894 C.2     1  UNL1       -0.0305
     34 C          63.6076   86.1121   13.6214 C.2     1  UNL1       -0.0245
     35 C          63.6032   88.5276   12.6648 C.3     1  UNL1        0.0257
     36 C          62.8680   89.8074   12.9322 C.3     1  UNL1        0.0047
     37 C          63.3218   91.0824   12.2853 C.3     1  UNL1        0.0003
     38 C          63.6086   91.1158   10.8133 C.3     1  UNL1        0.0002
     39 C          64.4972   92.1830   10.2464 C.3     1  UNL1        0.0056
     40 C          65.2533   93.0959   11.1656 C.3     1  UNL1        0.0666
     41 C          66.6420   92.7367   11.6040 C.3     1  UNL1        0.2639
     42 F          66.4667   93.5678   12.8403 F       1  UNL1       -0.2043
     43 F          66.8173   91.9056   10.3677 F       1  UNL1       -0.2043
     44 C          68.0308   92.3774   12.0425 C.3     1  UNL1        0.0666
     45 C          68.2422   91.6268   13.3238 C.3     1  UNL1        0.0056
     46 C          69.1077   92.2105   14.4010 C.3     1  UNL1        0.0002
     47 C          68.5593   92.3980   15.7845 C.3     1  UNL1        0.0000
     48 C          67.2969   93.1814   15.9911 C.3     1  UNL1        0.0000
     49 C          65.3359   91.6854   15.1747 C.3     1  UNL1        0.0000
     50 C          66.0070   92.4666   16.2652 C.3     1  UNL1        0.0000
@<TRIPOS>UNITY_ATOM_ATTR
9 1
charge -1
27 1
charge -1
@<TRIPOS>BOND
     1    49    50    1
     2    50    48    1
     3    48    47    1
     4    47    46    1
     5    46    45    1
     6    45    44    1
     7    44    41    1
     8    41    42    1
     9    41    43    1
    10    41    40    1
    11    40    39    1
    12    39    38    1
    13    38    37    1
    14    37    36    1
    15    36    35    1
    16    35    33    1
    17    33    34    2
    18    34     1    1
    19     1     2    1
    20     2     3    1
    21     2     5    1
    22     5     7    1
    23     7    11    1
    24    11    12    1
    25    12    13   ar
    26    13    14   ar
    27    14    15   ar
    28    15    18    1
    29    18    19    1
    30    19    20    1
    31    20    21    1
    32    21    22    1
    33    15    16   ar
    34    16    17   ar
    35     7     8    1
    36     8     9   ar
    37     8    10   ar
    38     1    23    1
    39    23    24    1
    40    23    29    1
    41    29    30    1
    42    30    31    1
    43    31    32    1
    44    23    26    1
    45    26    27   ar
    46    26    28   ar
    47    17    12   ar
    48     3     4    1
    49     5     6    1
    50    24    25    1
@<TRIPOS>MOLECULE
*****
 50 50 0 0 0
SMALL
GASTEIGER

@<TRIPOS>ATOM
      1 C          65.1174   91.9386   13.5562 C.3     1  UNL1        0.0939
      2 C          64.5203   91.0896   14.6392 C.3     1  UNL1        0.1757
      3 O          63.4086   91.6301   15.4889 O.3     1  UNL1       -0.3696
      4 H          63.1980   92.5346   15.2087 H       1  UNL1        0.2119
      5 N          65.0349   89.7001   14.8724 N.3     1  UNL1       -0.2716
      6 H          65.4895   89.7038   15.7855 H       1  UNL1        0.1257
      7 CA         64.0864   88.5380   14.8657 C.3     1  UNL1        0.0971
      8 C          63.1657   88.3146   16.0287 C.2     1  UNL1        0.0650
      9 O          63.4198   87.1829   16.9798 O.co2   1  UNL1       -0.5478
     10 OXT        61.9910   89.2231   16.2406 O.co2   1  UNL1       -0.5478
     11 C          64.0585   87.5994   13.6961 C.3     1  UNL1        0.0478
     12 C          63.9389   86.1215   13.9231 C.ar    1  UNL1       -0.0203
     13 C          65.0894   85.3569   14.5076 C.ar    1  UNL1       -0.0011
     14 C          64.9698   83.8790   14.7346 C.ar    1  UNL1        0.0366
     15 C          63.6997   83.1657   14.3771 C.ar    1  UNL1        0.1385
     16 C          62.5491   83.9302   13.7926 C.ar    1  UNL1        0.0366
     17 C          62.6687   85.4081   13.5656 C.ar    1  UNL1       -0.0011
     18 O          63.5801   81.6878   14.6041 O.3     1  UNL1       -0.4755
     19 C          63.6052   80.7453   13.4375 C.3     1  UNL1        0.2054
     20 C          62.7178   80.9931   12.2538 C.3     1  UNL1        0.0473
     21 C          63.3192   81.3564   10.9285 C.3     1  UNL1        0.0038
     22 C          64.1534   82.5962   10.7980 C.3     1  UNL1        0.0001
     23 C          66.0783   93.0356   13.9072 C.3     1  UNL1        0.1294
     24 O          65.6895   92.9142   15.3509 O.3     1  UNL1       -0.3810
     25 H          66.1768   93.5704   15.8732 H       1  UNL1        0.2107
     26 C          66.4670   93.1570   12.4636 C.2     1  UNL1        0.0749
     27 O          65.7458   94.1233   11.5713 O.co2   1  UNL1       -0.5468
     28 O          67.5770   92.3121   11.9121 O.co2   1  UNL1       -0.5468
     29 C          67.0392   94.1326   14.2582 C.3     1  UNL1        0.0648
     30 C          67.9521   93.9808   15.4387 C.3     1  UNL1        0.1451
     31 O          68.9239   92.8395   15.4934 O.3     1  UNL1       -0.3510
     32 C          68.7191   91.7266   16.4780 C.3     1  UNL1        0.1741
     33 C          63.4121   91.1144   11.7778 C.2     1  UNL1       -0.0305
     34 C          64.7535   91.6905   12.1223 C.2     1  UNL1       -0.0245
     35 C          63.0483   90.8664   10.3439 C.3     1  UNL1        0.0257
     36 C          61.6494   90.4617    9.9843 C.3     1  UNL1        0.0047
     37 C          60.5809   90.4397   11.0369 C.3     1  UNL1        0.0003
     38 C          60.1307   89.1337   11.6214 C.3     1  UNL1        0.0002
     39 C          60.2385   87.8740   10.8143 C.3     1  UNL1        0.0056
     40 C          61.3883   86.9367   11.0368 C.3     1  UNL1        0.0666
     41 C          62.1745   86.4233    9.8671 C.3     1  UNL1        0.2639
     42 F          62.4291   87.8323    9.4198 F       1  UNL1       -0.2043
     43 F          61.9199   85.0144   10.3143 F       1  UNL1       -0.2043
     44 C          62.9608   85.9100    8.6973 C.3     1  UNL1        0.0666
     45 C          62.3367   84.9340    7.7444 C.3     1  UNL1        0.0056
     46 C          61.0485   85.2767    7.0565 C.3     1  UNL1        0.0002
     47 C          59.9528   85.9645    7.8155 C.3     1  UNL1        0.0000
     48 C          59.2057   87.1033    7.1871 C.3     1  UNL1        0.0000
     49 C          59.3048   89.6204    6.5513 C.3     1  UNL1        0.0000
     50 C          59.5635   88.5179    7.5349 C.3     1  UNL1        0.0000
@<TRIPOS>UNITY_ATOM_ATTR
9 1
charge -1
27 1
charge -1
@<TRIPOS>BOND
     1    49    50    1
     2    50    48    1
     3    48    47    1
     4    47    46    1
     5    46    45    1
     6    45    44    1
     7    44    41    1
     8    41    42    1
     9    41    43    1
    10    41    40    1
    11    40    39    1
    12    39    38    1
    13    38    37    1
    14    37    36    1
    15    36    35    1
    16    35    33    1
    17    33    34    2
    18    34     1    1
    19     1     2    1
    20     2     3    1
    21     2     5    1
    22     5     7    1
    23     7    11    1
    24    11    12    1
    25    12    13   ar
    26    13    14   ar
    27    14    15   ar
    28    15    18    1
    29    18    19    1
    30    19    20    1
    31    20    21    1
    32    21    22    1
    33    15    16   ar
    34    16    17   ar
    35     7     8    1
    36     8     9   ar
    37     8    10   ar
    38     1    23    1
    39    23    24    1
    40    23    29    1
    41    29    30    1
    42    30    31    1
    43    31    32    1
    44    23    26    1
    45    26    27   ar
    46    26    28   ar
    47    17    12   ar
    48     3     4    1
    49     5     6    1
    50    24    25    1
@<TRIPOS>MOLECULE
*****
 50 50 0 0 0
SMALL
GASTEIGER

@<TRIPOS>ATOM
      1 C          62.1833   86.0361   10.8890 C.3     1  UNL1        0.0939
      2 C          60.8758   86.7453   10.6951 C.3     1  UNL1        0.1757
      3 O          60.0505   86.4757    9.4719 O.3     1  UNL1       -0.3696
      4 H          60.5025   85.8233    8.9142 H       1  UNL1        0.2119
      5 N          60.3937   87.7242   11.7243 N.3     1  UNL1       -0.2716
      6 H          61.0652   87.6993   12.4916 H       1  UNL1        0.1257
      7 CA         60.2079   89.1670   11.3581 C.3     1  UNL1        0.0971
      8 C          59.0964   89.9609   11.9780 C.2     1  UNL1        0.0650
      9 O          58.2287   89.3400   13.0322 O.co2   1  UNL1       -0.5478
     10 OXT        58.8526   91.3758   11.5436 O.co2   1  UNL1       -0.5478
     11 C          61.1336   89.8158   10.3722 C.3     1  UNL1        0.0478
     12 C          62.3433   90.5590   10.8560 C.ar    1  UNL1       -0.0203
     13 C          63.1798   91.3415    9.8875 C.ar    1  UNL1       -0.0011
     14 C          64.3896   92.0848   10.3714 C.ar    1  UNL1        0.0366
     15 C          64.7628   92.0456   11.8236 C.ar    1  UNL1        0.1385
     16 C          63.9262   91.2631   12.7921 C.ar    1  UNL1        0.0366
     17 C          62.7165   90.5199   12.3083 C.ar    1  UNL1       -0.0011
     18 O          65.9725   92.7889   12.3075 O.3     1  UNL1       -0.4755
     19 C          66.6579   92.3637   13.5722 C.3     1  UNL1        0.2054
     20 C          66.2518   92.9664   14.8844 C.3     1  UNL1        0.0473
     21 C          67.0963   92.7458   16.1043 C.3     1  UNL1        0.0038
     22 C          68.5343   92.3446   15.9586 C.3     1  UNL1        0.0001
     23 C          62.8370   85.3390    9.7328 C.3     1  UNL1        0.1294
     24 O          62.5606   86.5272    8.8601 O.3     1  UNL1       -0.3810
     25 H          62.8817   86.3504    7.9620 H       1  UNL1        0.2107
     26 C          63.1134   84.1508   10.6056 C.2     1  UNL1        0.0749
     27 O          62.0188   83.5703   11.4510 O.co2   1  UNL1       -0.5468
     28 O          64.4845   83.5430   10.6330 O.co2   1  UNL1       -0.5468
     29 C          63.4908   84.6418    8.5767 C.3     1  UNL1        0.0648
     30 C          63.0946   84.9867    7.1717 C.3     1  UNL1        0.1451
     31 O          61.6943   84.7254    6.7017 O.3     1  UNL1       -0.3510
     32 C          61.4574   84.1262    5.3472 C.3     1  UNL1        0.1741
     33 C          63.4324   87.2834   12.7953 C.2     1  UNL1       -0.0305
     34 C          62.8370   86.0240   12.2390 C.2     1  UNL1       -0.0245
     35 C          64.0860   87.2713   14.1453 C.3     1  UNL1        0.0257
     36 C          64.5724   88.5528   14.7546 C.3     1  UNL1        0.0047
     37 C          63.6598   89.3617   15.6280 C.3     1  UNL1        0.0003
     38 C          62.6595   88.6732   16.5086 C.3     1  UNL1        0.0002
     39 C          63.1262   87.7442   17.5899 C.3     1  UNL1        0.0056
     40 C          62.4779   86.4019   17.7570 C.3     1  UNL1        0.0666
     41 C          62.4638   85.4286   16.6158 C.3     1  UNL1        0.2639
     42 F          63.9546   85.2942   16.7120 F       1  UNL1       -0.2043
     43 F          60.9729   85.5630   16.5196 F       1  UNL1       -0.2043
     44 C          62.4497   84.4552   15.4746 C.3     1  UNL1        0.0666
     45 C          63.5499   83.4451   15.3367 C.3     1  UNL1        0.0056
     46 C          63.9558   82.9589   13.9769 C.3     1  UNL1        0.0002
     47 C          63.9586   81.4895   13.6758 C.3     1  UNL1        0.0000
     48 C          62.7387   80.6637   13.9581 C.3     1  UNL1        0.0000
     49 C          60.1566   80.4710   14.1718 C.3     1  UNL1        0.0000
     50 C          61.3731   81.2621   13.7924 C.3     1  UNL1        0.0000
@<TRIPOS>UNITY_ATOM_ATTR
9 1
charge -1
27 1
charge -1
@<TRIPOS>BOND
     1    49    50    1
     2    50    48    1
     3    48    47    1
     4    47    46    1
     5    46    45    1
     6    45    44    1
     7    44    41    1
     8    41    42    1
     9    41    43    1
    10    41    40    1
    11    40    39    1
    12    39    38    1
    13    38    37    1
    14    37    36    1
    15    36    35    1
    16    35    33    1
    17    33    34    2
    18    34     1    1
    19     1     2    1
    20     2     3    1
    21     2     5    1
    22     5     7    1
    23     7    11    1
    24    11    12    1
    25    12    13   ar
    26    13    14   ar
    27    14    15   ar
    28    15    18    1
    29    18    19    1
    30    19    20    1
    31    20    21    1
    32    21    22    1
    33    15    16   ar
    34    16    17   ar
    35     7     8    1
    36     8     9   ar
    37     8    10   ar
    38     1    23    1
    39    23    24    1
    40    23    29    1
    41    29    30    1
    42    30    31    1
    43    31    32    1
    44    23    26    1
    45    26    27   ar
    46    26    28   ar
    47    17    12   ar
    48     3     4    1
    49     5     6    1
    50    24    25    1
