@<TRIPOS>MOLECULE
*****
 30 33 0 0 0
SMALL
GASTEIGER

@<TRIPOS>ATOM
      1 N          59.7309   88.5180   10.7134 N.pl3   1  UNL1       -0.3039
      2 H          58.7700   88.3477   10.8434 H       1  UNL1        0.1496
      3 C          60.2804   87.5323    7.9338 C.3     1  UNL1        0.1363
      4 N          60.9481   86.8784    9.1072 N.ar    1  UNL1       -0.2669
      5 C          60.6734   87.3713   10.4970 C.ar    1  UNL1        0.2002
      6 N          61.3410   86.7175   11.6703 N.ar    1  UNL1       -0.2150
      7 C          62.2835   85.5708   11.4538 C.ar    1  UNL1        0.0895
      8 C          62.9512   84.9170   12.6272 C.ar    1  UNL1        0.0307
      9 C          63.8936   83.7703   12.4107 C.ar    1  UNL1        0.0592
     10 CL         64.5614   83.1165   13.5840 Cl      1  UNL1       -0.0822
     11 C          64.1684   83.2775   11.0209 C.ar    1  UNL1        0.0116
     12 C          63.5007   83.9312    9.8475 C.ar    1  UNL1        0.0071
     13 C          62.5583   85.0779   10.0640 C.ar    1  UNL1        0.0740
     14 C          61.8906   85.7318    8.8907 C.ar    1  UNL1        0.2643
     15 O          62.1653   85.2389    7.5009 O.2     1  UNL1       -0.2668
     16 C          60.2524   89.9243   10.7318 C.3     1  UNL1        0.0942
     17 C          61.6139   90.2265   10.1796 C.3     1  UNL1        0.0476
     18 C          62.7225   90.6399   11.1017 C.ar    1  UNL1       -0.0205
     19 C          63.7478   91.6341   10.6433 C.ar    1  UNL1       -0.0042
     20 C          64.8564   92.0475   11.5654 C.ar    1  UNL1       -0.0003
     21 C          64.9395   91.4667   12.9458 C.ar    1  UNL1       -0.0000
     22 C          63.9142   90.4724   13.4042 C.ar    1  UNL1       -0.0003
     23 C          62.8056   90.0591   12.4822 C.ar    1  UNL1       -0.0042
     24 C          66.0481   91.8801   13.8679 C.ar    1  UNL1        0.0001
     25 C          67.4613   91.9285   13.3673 C.ar    1  UNL1        0.0023
     26 C          68.5698   92.3419   14.2893 C.ar    1  UNL1        0.0296
     27 C          68.2652   92.7068   15.7121 C.ar    1  UNL1        0.1401
     28 F          69.3738   93.1201   16.6341 F       1  UNL1       -0.2042
     29 C          66.8521   92.6583   16.2127 C.ar    1  UNL1        0.0296
     30 C          65.7435   92.2449   15.2906 C.ar    1  UNL1        0.0023
@<TRIPOS>BOND
     1     3     4    1
     2     4     5   ar
     3     5     1    1
     4     1    16    1
     5    16    17    1
     6    17    18    1
     7    18    19   ar
     8    19    20   ar
     9    20    21   ar
    10    21    24    1
    11    24    25   ar
    12    25    26   ar
    13    26    27   ar
    14    27    28    1
    15    27    29   ar
    16    29    30   ar
    17    21    22   ar
    18    22    23   ar
    19     5     6   ar
    20     6     7   ar
    21     7     8   ar
    22     8     9   ar
    23     9    10    1
    24     9    11   ar
    25    11    12   ar
    26    12    13   ar
    27    13    14   ar
    28    14    15    2
    29    14     4   ar
    30    23    18   ar
    31    13     7   ar
    32    30    24   ar
    33     1     2    1
@<TRIPOS>MOLECULE
*****
 30 33 0 0 0
SMALL
GASTEIGER

@<TRIPOS>ATOM
      1 N          62.6925   83.7226   15.1596 N.pl3   1  UNL1       -0.3039
      2 H          63.0427   82.8875   15.5458 H       1  UNL1        0.1496
      3 C          64.3124   81.8689   13.4450 C.3     1  UNL1        0.1363
      4 N          63.6174   83.0463   12.8278 N.ar    1  UNL1       -0.2669
      5 C          62.8075   83.9731   13.6851 C.ar    1  UNL1        0.2002
      6 N          62.1125   85.1504   13.0679 N.ar    1  UNL1       -0.2150
      7 C          62.2275   85.4010   11.5934 C.ar    1  UNL1        0.0895
      8 C          61.5326   86.5783   10.9762 C.ar    1  UNL1        0.0307
      9 C          61.6476   86.8287    9.5018 C.ar    1  UNL1        0.0592
     10 CL         60.9526   88.0061    8.8846 Cl      1  UNL1       -0.0822
     11 C          62.4575   85.9019    8.6445 C.ar    1  UNL1        0.0116
     12 C          63.1525   84.7246    9.2617 C.ar    1  UNL1        0.0071
     13 C          63.0375   84.4741   10.7361 C.ar    1  UNL1        0.0740
     14 C          63.7325   83.2967   11.3534 C.ar    1  UNL1        0.2643
     15 O          64.5424   82.3699   10.4961 O.2     1  UNL1       -0.2668
     16 C          62.0438   84.7445   16.0456 C.3     1  UNL1        0.0942
     17 C          62.8907   85.6949   16.8389 C.3     1  UNL1        0.0476
     18 C          63.3950   86.9578   16.2057 C.ar    1  UNL1       -0.0205
     19 C          64.2846   86.8887   14.9999 C.ar    1  UNL1       -0.0042
     20 C          64.7889   88.1515   14.3667 C.ar    1  UNL1       -0.0003
     21 C          64.4037   89.4833   14.9392 C.ar    1  UNL1       -0.0000
     22 C          63.5142   89.5523   16.1450 C.ar    1  UNL1       -0.0003
     23 C          63.0098   88.2896   16.7782 C.ar    1  UNL1       -0.0042
     24 C          64.9081   90.7461   14.3060 C.ar    1  UNL1        0.0001
     25 C          64.4885   91.1052   12.9114 C.ar    1  UNL1        0.0023
     26 C          64.9928   92.3680   12.2781 C.ar    1  UNL1        0.0296
     27 C          65.9167   93.2718   13.0395 C.ar    1  UNL1        0.1401
     28 F          66.4211   94.5345   12.4063 F       1  UNL1       -0.2042
     29 C          66.3363   92.9127   14.4342 C.ar    1  UNL1        0.0296
     30 C          65.8320   91.6498   15.0674 C.ar    1  UNL1        0.0023
@<TRIPOS>BOND
     1     3     4    1
     2     4     5   ar
     3     5     1    1
     4     1    16    1
     5    16    17    1
     6    17    18    1
     7    18    19   ar
     8    19    20   ar
     9    20    21   ar
    10    21    24    1
    11    24    25   ar
    12    25    26   ar
    13    26    27   ar
    14    27    28    1
    15    27    29   ar
    16    29    30   ar
    17    21    22   ar
    18    22    23   ar
    19     5     6   ar
    20     6     7   ar
    21     7     8   ar
    22     8     9   ar
    23     9    10    1
    24     9    11   ar
    25    11    12   ar
    26    12    13   ar
    27    13    14   ar
    28    14    15    2
    29    14     4   ar
    30    23    18   ar
    31    13     7   ar
    32    30    24   ar
    33     1     2    1
@<TRIPOS>MOLECULE
*****
 30 33 0 0 0
SMALL
GASTEIGER

@<TRIPOS>ATOM
      1 N          63.5777   89.9285   16.4322 N.pl3   1  UNL1       -0.3039
      2 H          64.1183   90.4420   17.0751 H       1  UNL1        0.1496
      3 C          65.6656   91.8096   15.3825 C.3     1  UNL1        0.1363
      4 N          64.6384   91.2347   14.4526 N.ar    1  UNL1       -0.2669
      5 C          63.5945   90.2941   14.9775 C.ar    1  UNL1        0.2002
      6 N          62.5674   89.7191   14.0478 N.ar    1  UNL1       -0.2150
      7 C          62.5842   90.0848   12.5931 C.ar    1  UNL1        0.0895
      8 C          61.5571   89.5098   11.6633 C.ar    1  UNL1        0.0307
      9 C          61.5740   89.8754   10.2087 C.ar    1  UNL1        0.0592
     10 CL         60.5468   89.3004    9.2789 Cl      1  UNL1       -0.0822
     11 C          62.6179   90.8160    9.6838 C.ar    1  UNL1        0.0116
     12 C          63.6450   91.3909   10.6135 C.ar    1  UNL1        0.0071
     13 C          63.6281   91.0253   12.0682 C.ar    1  UNL1        0.0740
     14 C          64.6553   91.6003   12.9980 C.ar    1  UNL1        0.2643
     15 O          65.6992   92.5409   12.4731 O.2     1  UNL1       -0.2668
     16 C          62.7372   88.7806   16.9074 C.3     1  UNL1        0.0942
     17 C          63.3700   87.4465   17.1714 C.3     1  UNL1        0.0476
     18 C          63.3405   86.3804   16.1165 C.ar    1  UNL1       -0.0205
     19 C          64.2435   86.4812   14.9230 C.ar    1  UNL1       -0.0042
     20 C          64.2140   85.4152   13.8682 C.ar    1  UNL1       -0.0003
     21 C          63.2816   84.2484   14.0069 C.ar    1  UNL1       -0.0000
     22 C          62.3787   84.1477   15.2004 C.ar    1  UNL1       -0.0003
     23 C          62.4081   85.2137   16.2552 C.ar    1  UNL1       -0.0042
     24 C          63.2521   83.1824   12.9520 C.ar    1  UNL1        0.0001
     25 C          63.8313   83.4536   11.5952 C.ar    1  UNL1        0.0023
     26 C          63.8018   82.3876   10.5403 C.ar    1  UNL1        0.0296
     27 C          63.1932   81.0503   10.8423 C.ar    1  UNL1        0.1401
     28 F          63.1637   79.9843    9.7875 F       1  UNL1       -0.2042
     29 C          62.6140   80.7790   12.1992 C.ar    1  UNL1        0.0296
     30 C          62.6435   81.8451   13.2540 C.ar    1  UNL1        0.0023
@<TRIPOS>BOND
     1     3     4    1
     2     4     5   ar
     3     5     1    1
     4     1    16    1
     5    16    17    1
     6    17    18    1
     7    18    19   ar
     8    19    20   ar
     9    20    21   ar
    10    21    24    1
    11    24    25   ar
    12    25    26   ar
    13    26    27   ar
    14    27    28    1
    15    27    29   ar
    16    29    30   ar
    17    21    22   ar
    18    22    23   ar
    19     5     6   ar
    20     6     7   ar
    21     7     8   ar
    22     8     9   ar
    23     9    10    1
    24     9    11   ar
    25    11    12   ar
    26    12    13   ar
    27    13    14   ar
    28    14    15    2
    29    14     4   ar
    30    23    18   ar
    31    13     7   ar
    32    30    24   ar
    33     1     2    1
@<TRIPOS>MOLECULE
*****
 30 33 0 0 0
SMALL
GASTEIGER

@<TRIPOS>ATOM
      1 N          63.6861   86.6825   15.0108 N.pl3   1  UNL1       -0.3039
      2 H          63.2369   86.3398   15.8170 H       1  UNL1        0.1496
      3 C          64.8925   83.9441   14.7971 C.3     1  UNL1        0.1363
      4 N          64.1990   84.5524   13.6143 N.ar    1  UNL1       -0.2669
      5 C          63.5958   85.9217   13.7211 C.ar    1  UNL1        0.2002
      6 N          62.9023   86.5300   12.5384 N.ar    1  UNL1       -0.2150
      7 C          62.8119   85.7692   11.2488 C.ar    1  UNL1        0.0895
      8 C          62.1184   86.3776   10.0661 C.ar    1  UNL1        0.0307
      9 C          62.0281   85.6168    8.7766 C.ar    1  UNL1        0.0592
     10 CL         61.3345   86.2251    7.5938 Cl      1  UNL1       -0.0822
     11 C          62.6313   84.2476    8.6697 C.ar    1  UNL1        0.0116
     12 C          63.3248   83.6392    9.8525 C.ar    1  UNL1        0.0071
     13 C          63.4151   84.4000   11.1420 C.ar    1  UNL1        0.0740
     14 C          64.1086   83.7916   12.3248 C.ar    1  UNL1        0.2643
     15 O          64.7118   82.4224   12.2180 O.2     1  UNL1       -0.2668
     16 C          64.4609   87.9654   15.0720 C.3     1  UNL1        0.0942
     17 C          63.7664   89.2731   14.8329 C.3     1  UNL1        0.0476
     18 C          64.3755   90.2886   13.9120 C.ar    1  UNL1       -0.0205
     19 C          63.7353   90.5787   12.5868 C.ar    1  UNL1       -0.0042
     20 C          64.3444   91.5941   11.6660 C.ar    1  UNL1       -0.0003
     21 C          65.5936   92.3192   12.0702 C.ar    1  UNL1       -0.0000
     22 C          66.2338   92.0290   13.3953 C.ar    1  UNL1       -0.0003
     23 C          65.6248   91.0137   14.3162 C.ar    1  UNL1       -0.0042
     24 C          66.2028   93.3346   11.1493 C.ar    1  UNL1        0.0001
     25 C          67.1443   92.8962   10.0670 C.ar    1  UNL1        0.0023
     26 C          67.7534   93.9115    9.1462 C.ar    1  UNL1        0.0296
     27 C          67.4210   95.3654    9.3075 C.ar    1  UNL1        0.1401
     28 F          68.0302   96.3807    8.3867 F       1  UNL1       -0.2042
     29 C          66.4795   95.8038   10.3898 C.ar    1  UNL1        0.0296
     30 C          65.8704   94.7884   11.3107 C.ar    1  UNL1        0.0023
@<TRIPOS>BOND
     1     3     4    1
     2     4     5   ar
     3     5     1    1
     4     1    16    1
     5    16    17    1
     6    17    18    1
     7    18    19   ar
     8    19    20   ar
     9    20    21   ar
    10    21    24    1
    11    24    25   ar
    12    25    26   ar
    13    26    27   ar
    14    27    28    1
    15    27    29   ar
    16    29    30   ar
    17    21    22   ar
    18    22    23   ar
    19     5     6   ar
    20     6     7   ar
    21     7     8   ar
    22     8     9   ar
    23     9    10    1
    24     9    11   ar
    25    11    12   ar
    26    12    13   ar
    27    13    14   ar
    28    14    15    2
    29    14     4   ar
    30    23    18   ar
    31    13     7   ar
    32    30    24   ar
    33     1     2    1
@<TRIPOS>MOLECULE
*****
 30 33 0 0 0
SMALL
GASTEIGER

@<TRIPOS>ATOM
      1 N          64.4322   88.5278   14.9278 N.pl3   1  UNL1       -0.3039
      2 H          65.4000   88.6549   15.0561 H       1  UNL1        0.1496
      3 C          64.7502   91.2654   13.7425 C.3     1  UNL1        0.1363
      4 N          63.9613   90.2190   13.0124 N.ar    1  UNL1       -0.2669
      5 C          63.8023   88.8502   13.6051 C.ar    1  UNL1        0.2002
      6 N          63.0135   87.8039   12.8751 N.ar    1  UNL1       -0.2150
      7 C          62.3836   88.1263   11.5524 C.ar    1  UNL1        0.0895
      8 C          61.5948   87.0799   10.8225 C.ar    1  UNL1        0.0307
      9 C          60.9650   87.4023    9.4999 C.ar    1  UNL1        0.0592
     10 CL         60.1761   86.3560    8.7698 Cl      1  UNL1       -0.0822
     11 C          61.1240   88.7711    8.9072 C.ar    1  UNL1        0.0116
     12 C          61.9128   89.8174    9.6372 C.ar    1  UNL1        0.0071
     13 C          62.5426   89.4950   10.9598 C.ar    1  UNL1        0.0740
     14 C          63.3315   90.5414   11.6898 C.ar    1  UNL1        0.2643
     15 O          63.4904   91.9102   11.0972 O.2     1  UNL1       -0.2668
     16 C          63.5875   88.0119   16.0548 C.3     1  UNL1        0.0942
     17 C          63.7768   86.6098   16.5529 C.3     1  UNL1        0.0476
     18 C          63.6176   85.4519   15.6126 C.ar    1  UNL1       -0.0205
     19 C          64.6736   85.1693   14.5854 C.ar    1  UNL1       -0.0042
     20 C          64.5145   84.0115   13.6452 C.ar    1  UNL1       -0.0003
     21 C          63.2994   83.1363   13.7321 C.ar    1  UNL1       -0.0000
     22 C          62.2435   83.4189   14.7593 C.ar    1  UNL1       -0.0003
     23 C          62.4026   84.5767   15.6996 C.ar    1  UNL1       -0.0042
     24 C          63.1402   81.9784   12.7918 C.ar    1  UNL1        0.0001
     25 C          63.4289   82.1540   11.3304 C.ar    1  UNL1        0.0023
     26 C          63.2698   80.9962   10.3901 C.ar    1  UNL1        0.0296
     27 C          62.8219   79.6628   10.9113 C.ar    1  UNL1        0.1401
     28 F          62.6628   78.5050    9.9710 F       1  UNL1       -0.2042
     29 C          62.5333   79.4872   12.3727 C.ar    1  UNL1        0.0296
     30 C          62.6924   80.6451   13.3130 C.ar    1  UNL1        0.0023
@<TRIPOS>BOND
     1     3     4    1
     2     4     5   ar
     3     5     1    1
     4     1    16    1
     5    16    17    1
     6    17    18    1
     7    18    19   ar
     8    19    20   ar
     9    20    21   ar
    10    21    24    1
    11    24    25   ar
    12    25    26   ar
    13    26    27   ar
    14    27    28    1
    15    27    29   ar
    16    29    30   ar
    17    21    22   ar
    18    22    23   ar
    19     5     6   ar
    20     6     7   ar
    21     7     8   ar
    22     8     9   ar
    23     9    10    1
    24     9    11   ar
    25    11    12   ar
    26    12    13   ar
    27    13    14   ar
    28    14    15    2
    29    14     4   ar
    30    23    18   ar
    31    13     7   ar
    32    30    24   ar
    33     1     2    1
@<TRIPOS>MOLECULE
*****
 30 33 0 0 0
SMALL
GASTEIGER

@<TRIPOS>ATOM
      1 N          58.9124   89.1435    7.1760 N.pl3   1  UNL1       -0.3039
      2 H          57.9406   89.0580    7.3088 H       1  UNL1        0.1496
      3 C          59.4994   86.2607    7.7631 C.3     1  UNL1        0.1363
      4 N          60.1492   87.3394    8.5781 N.ar    1  UNL1       -0.2669
      5 C          59.8557   88.7808    8.2845 C.ar    1  UNL1        0.2002
      6 N          60.5054   89.8596    9.0994 N.ar    1  UNL1       -0.2150
      7 C          61.4487   89.4969   10.2079 C.ar    1  UNL1        0.0895
      8 C          62.0985   90.5757   11.0228 C.ar    1  UNL1        0.0307
      9 C          63.0417   90.2130   12.1313 C.ar    1  UNL1        0.0592
     10 CL         63.6915   91.2918   12.9462 Cl      1  UNL1       -0.0822
     11 C          63.3352   88.7716   12.4249 C.ar    1  UNL1        0.0116
     12 C          62.6854   87.6929   11.6100 C.ar    1  UNL1        0.0071
     13 C          61.7422   88.0555   10.5015 C.ar    1  UNL1        0.0740
     14 C          61.0924   86.9768    9.6865 C.ar    1  UNL1        0.2643
     15 O          61.3859   85.5353    9.9801 O.2     1  UNL1       -0.2668
     16 C          59.4497   89.6363    5.8651 C.3     1  UNL1        0.0942
     17 C          59.2016   91.0525    5.4377 C.3     1  UNL1        0.0476
     18 C          60.0578   91.6764    4.3757 C.ar    1  UNL1       -0.0205
     19 C          61.4965   91.2742    4.2400 C.ar    1  UNL1       -0.0042
     20 C          62.3527   91.8980    3.1780 C.ar    1  UNL1       -0.0003
     21 C          61.7702   92.9240    2.2518 C.ar    1  UNL1       -0.0000
     22 C          60.3315   93.3263    2.3876 C.ar    1  UNL1       -0.0003
     23 C          59.4753   92.7025    3.4495 C.ar    1  UNL1       -0.0042
     24 C          62.6264   93.5479    1.1898 C.ar    1  UNL1        0.0001
     25 C          64.1211   93.4787    1.2949 C.ar    1  UNL1        0.0023
     26 C          64.9773   94.1026    0.2330 C.ar    1  UNL1        0.0296
     27 C          64.3388   94.7956   -0.9341 C.ar    1  UNL1        0.1401
     28 F          65.1950   95.4195   -1.9960 F       1  UNL1       -0.2042
     29 C          62.8441   94.8648   -1.0392 C.ar    1  UNL1        0.0296
     30 C          61.9879   94.2410    0.0228 C.ar    1  UNL1        0.0023
@<TRIPOS>BOND
     1     3     4    1
     2     4     5   ar
     3     5     1    1
     4     1    16    1
     5    16    17    1
     6    17    18    1
     7    18    19   ar
     8    19    20   ar
     9    20    21   ar
    10    21    24    1
    11    24    25   ar
    12    25    26   ar
    13    26    27   ar
    14    27    28    1
    15    27    29   ar
    16    29    30   ar
    17    21    22   ar
    18    22    23   ar
    19     5     6   ar
    20     6     7   ar
    21     7     8   ar
    22     8     9   ar
    23     9    10    1
    24     9    11   ar
    25    11    12   ar
    26    12    13   ar
    27    13    14   ar
    28    14    15    2
    29    14     4   ar
    30    23    18   ar
    31    13     7   ar
    32    30    24   ar
    33     1     2    1
@<TRIPOS>MOLECULE
*****
 30 33 0 0 0
SMALL
GASTEIGER

@<TRIPOS>ATOM
      1 N          64.9859   83.8887   14.4628 N.pl3   1  UNL1       -0.3039
      2 H          65.2727   83.1648   15.0653 H       1  UNL1        0.1496
      3 C          62.8854   83.7984   16.6029 C.3     1  UNL1        0.1363
      4 N          63.3882   85.1194   16.1008 N.ar    1  UNL1       -0.2669
      5 C          64.4385   85.1646   15.0308 C.ar    1  UNL1        0.2002
      6 N          64.9413   86.4856   14.5287 N.ar    1  UNL1       -0.2150
      7 C          64.3939   87.7615   15.0966 C.ar    1  UNL1        0.0895
      8 C          64.8967   89.0825   14.5945 C.ar    1  UNL1        0.0307
      9 C          64.3493   90.3583   15.1625 C.ar    1  UNL1        0.0592
     10 CL         64.8521   91.6794   14.6604 Cl      1  UNL1       -0.0822
     11 C          63.2990   90.3131   16.2325 C.ar    1  UNL1        0.0116
     12 C          62.7962   88.9921   16.7346 C.ar    1  UNL1        0.0071
     13 C          63.3436   87.7163   16.1667 C.ar    1  UNL1        0.0740
     14 C          62.8408   86.3953   16.6688 C.ar    1  UNL1        0.2643
     15 O          61.7906   86.3501   17.7388 O.2     1  UNL1       -0.2668
     16 C          65.0963   83.7157   12.9770 C.3     1  UNL1        0.0942
     17 C          63.9099   83.2503   12.1859 C.3     1  UNL1        0.0476
     18 C          63.1369   84.2261   11.3490 C.ar    1  UNL1       -0.0205
     19 C          63.3950   84.3186    9.8743 C.ar    1  UNL1       -0.0042
     20 C          62.6220   85.2942    9.0373 C.ar    1  UNL1       -0.0003
     21 C          61.5909   86.1774    9.6752 C.ar    1  UNL1       -0.0000
     22 C          61.3329   86.0849   11.1499 C.ar    1  UNL1       -0.0003
     23 C          62.1058   85.1092   11.9868 C.ar    1  UNL1       -0.0042
     24 C          60.8179   87.1532    8.8383 C.ar    1  UNL1        0.0001
     25 C          60.8890   88.6209    9.1395 C.ar    1  UNL1        0.0023
     26 C          60.1160   89.5966    8.3027 C.ar    1  UNL1        0.0296
     27 C          59.2718   89.1047    7.1645 C.ar    1  UNL1        0.1401
     28 F          58.4988   90.0804    6.3276 F       1  UNL1       -0.2042
     29 C          59.2007   87.6370    6.8632 C.ar    1  UNL1        0.0296
     30 C          59.9737   86.6612    7.7001 C.ar    1  UNL1        0.0023
@<TRIPOS>BOND
     1     3     4    1
     2     4     5   ar
     3     5     1    1
     4     1    16    1
     5    16    17    1
     6    17    18    1
     7    18    19   ar
     8    19    20   ar
     9    20    21   ar
    10    21    24    1
    11    24    25   ar
    12    25    26   ar
    13    26    27   ar
    14    27    28    1
    15    27    29   ar
    16    29    30   ar
    17    21    22   ar
    18    22    23   ar
    19     5     6   ar
    20     6     7   ar
    21     7     8   ar
    22     8     9   ar
    23     9    10    1
    24     9    11   ar
    25    11    12   ar
    26    12    13   ar
    27    13    14   ar
    28    14    15    2
    29    14     4   ar
    30    23    18   ar
    31    13     7   ar
    32    30    24   ar
    33     1     2    1
