@<TRIPOS>MOLECULE
*****
 34 36 0 0 0
SMALL
GASTEIGER

@<TRIPOS>ATOM
      1 C          63.9875   89.0521   14.5757 C.ar    1  UNL1        0.0528
      2 C          64.0458   87.6861   13.9588 C.ar    1  UNL1        0.0167
      3 C          63.7032   86.4776   14.7786 C.ar    1  UNL1        0.0505
      4 C          63.3023   86.6352   16.2155 C.ar    1  UNL1        0.0170
      5 C          63.2441   88.0011   16.8324 C.ar    1  UNL1        0.0307
      6 C          63.5866   89.2096   16.0125 C.ar    1  UNL1        0.1402
      7 F          63.5283   90.5757   16.6295 F       1  UNL1       -0.2044
      8 C          63.0792   89.8175   13.0565 C.3     1  UNL1        0.0607
      9 C          64.3301   90.2606   13.7558 C.3     1  UNL1        0.2223
     10 C          65.4620   90.2840   14.7398 C.3     1  UNL1        0.1959
     11 O          66.5020   91.3620   14.6611 O.3     1  UNL1       -0.3357
     12 C          66.4101   92.4167   13.5983 C.3     1  UNL1        0.2740
     13 C          66.7526   93.6251   12.7785 C.3     1  UNL1        0.0512
     14 C          65.2783   92.3932   12.6144 C.2     1  UNL1        0.3217
     15 N          65.1864   93.4479   11.5516 N.pl3   1  UNL1       -0.2480
     16 N          64.2382   91.3152   12.6931 N.2     1  UNL1       -0.0692
     17 H          65.8690   94.1554   11.4999 H       1  UNL1        0.2882
     18 H          64.4435   93.4325   10.9058 H       1  UNL1        0.2882
     19 C          67.6610   92.8598   14.2976 C.3     1  UNL1        0.4305
     20 F          68.9119   93.3029   14.9969 F       1  UNL1       -0.1670
     21 F          66.8891   93.9421   14.9926 F       1  UNL1       -0.1670
     22 F          68.4328   91.7775   13.6027 F       1  UNL1       -0.1670
     23 N          63.7615   85.1116   14.1617 N.am    1  UNL1       -0.2791
     24 C          62.8861   84.7800   12.9896 C.2     1  UNL1        0.2681
     25 O          61.9524   85.8146   12.4345 O.2     1  UNL1       -0.2681
     26 H          64.3743   84.4326   14.5260 H       1  UNL1        0.1552
     27 C          62.9444   83.4141   12.3727 C.ar    1  UNL1        0.1453
     28 N          63.4535   83.2448   10.9719 N.ar    1  UNL1       -0.2375
     29 C          63.5118   81.8788   10.3550 C.ar    1  UNL1        0.1104
     30 C          63.0608   80.6820   11.1388 C.ar    1  UNL1        0.0776
     31 CL         63.1191   79.3160   10.5218 Cl      1  UNL1       -0.0806
     32 C          62.5517   80.8512   12.5395 C.ar    1  UNL1        0.0260
     33 C          62.4934   82.2172   13.1565 C.ar    1  UNL1        0.0806
     34 CL         61.9843   82.3864   14.5572 Cl      1  UNL1       -0.0805
@<TRIPOS>BOND
     1     9     8    1
     2     9     1    1
     3     1     2   ar
     4     2     3   ar
     5     3    23    1
     6    23    24   am
     7    24    25    2
     8    24    27    1
     9    27    28   ar
    10    28    29   ar
    11    29    30   ar
    12    30    31    1
    13    30    32   ar
    14    32    33   ar
    15    33    34    1
    16     3     4   ar
    17     4     5   ar
    18     5     6   ar
    19     6     7    1
    20     9    10    1
    21    10    11    1
    22    11    12    1
    23    12    13    1
    24    12    19    1
    25    19    20    1
    26    19    21    1
    27    19    22    1
    28    12    14    1
    29    14    15    1
    30    14    16    2
    31    16     9    1
    32     6     1   ar
    33    33    27   ar
    34    23    26    1
    35    15    17    1
    36    15    18    1
@<TRIPOS>MOLECULE
*****
 34 36 0 0 0
SMALL
GASTEIGER

@<TRIPOS>ATOM
      1 C          63.9508   88.7994   14.1138 C.ar    1  UNL1        0.0528
      2 C          64.3036   89.8251   13.0778 C.ar    1  UNL1        0.0167
      3 C          64.4516   91.2657   13.4687 C.ar    1  UNL1        0.0505
      4 C          64.2468   91.6806   14.8955 C.ar    1  UNL1        0.0170
      5 C          63.8941   90.6548   15.9316 C.ar    1  UNL1        0.0307
      6 C          63.7461   89.2143   15.5407 C.ar    1  UNL1        0.1402
      7 F          63.3933   88.1884   16.5768 F       1  UNL1       -0.2044
      8 C          64.6320   87.2082   14.9639 C.3     1  UNL1        0.0607
      9 C          63.8028   87.3588   13.7230 C.3     1  UNL1        0.2223
     10 C          63.0251   88.0096   12.6179 C.3     1  UNL1        0.1959
     11 O          62.3873   87.1677   11.5529 O.3     1  UNL1       -0.3357
     12 C          62.5273   85.6747   11.5931 C.3     1  UNL1        0.2740
     13 C          62.3793   84.2341   11.2023 C.3     1  UNL1        0.0512
     14 C          63.3050   85.0238   12.6982 C.2     1  UNL1        0.3217
     15 N          63.4450   83.5309   12.7384 N.pl3   1  UNL1       -0.2480
     16 N          63.9428   85.8658   13.7632 N.2     1  UNL1       -0.0692
     17 H          63.0264   82.9782   12.0394 H       1  UNL1        0.2882
     18 H          63.9555   83.1037   13.4637 H       1  UNL1        0.2882
     19 C          61.6981   85.8253   10.3521 C.3     1  UNL1        0.4305
     20 F          60.8689   85.9759    9.1112 F       1  UNL1       -0.1670
     21 F          62.7790   85.1637    9.5496 F       1  UNL1       -0.1670
     22 F          60.6172   86.4868   11.1547 F       1  UNL1       -0.1670
     23 N          64.8043   92.2915   12.4326 N.am    1  UNL1       -0.2791
     24 C          66.2245   92.7515   12.2857 C.2     1  UNL1        0.2681
     25 O          67.2919   92.1856   13.1749 O.2     1  UNL1       -0.2681
     26 H          64.1038   92.6629   11.8491 H       1  UNL1        0.1552
     27 C          66.5773   93.7772   11.2497 C.ar    1  UNL1        0.1453
     28 N          66.1208   95.1966   11.4137 N.ar    1  UNL1       -0.2375
     29 C          66.4736   96.2224   10.3777 C.ar    1  UNL1        0.1104
     30 C          67.2829   95.8288    9.1777 C.ar    1  UNL1        0.0776
     31 CL         67.6357   96.8545    8.1417 Cl      1  UNL1       -0.0806
     32 C          67.7395   94.4094    9.0137 C.ar    1  UNL1        0.0260
     33 C          67.3867   93.3836   10.0497 C.ar    1  UNL1        0.0806
     34 CL         67.8432   91.9642    9.8857 Cl      1  UNL1       -0.0805
@<TRIPOS>BOND
     1     9     8    1
     2     9     1    1
     3     1     2   ar
     4     2     3   ar
     5     3    23    1
     6    23    24   am
     7    24    25    2
     8    24    27    1
     9    27    28   ar
    10    28    29   ar
    11    29    30   ar
    12    30    31    1
    13    30    32   ar
    14    32    33   ar
    15    33    34    1
    16     3     4   ar
    17     4     5   ar
    18     5     6   ar
    19     6     7    1
    20     9    10    1
    21    10    11    1
    22    11    12    1
    23    12    13    1
    24    12    19    1
    25    19    20    1
    26    19    21    1
    27    19    22    1
    28    12    14    1
    29    14    15    1
    30    14    16    2
    31    16     9    1
    32     6     1   ar
    33    33    27   ar
    34    23    26    1
    35    15    17    1
    36    15    18    1
@<TRIPOS>MOLECULE
*****
 34 36 0 0 0
SMALL
GASTEIGER

@<TRIPOS>ATOM
      1 C          63.7143   86.2667   15.2546 C.ar    1  UNL1        0.0528
      2 C          64.3772   87.4211   14.5634 C.ar    1  UNL1        0.0167
      3 C          64.2716   88.8017   15.1404 C.ar    1  UNL1        0.0505
      4 C          63.5032   89.0278   16.4085 C.ar    1  UNL1        0.0170
      5 C          62.8403   87.8734   17.0998 C.ar    1  UNL1        0.0307
      6 C          62.9458   86.4929   16.5228 C.ar    1  UNL1        0.1402
      7 F          62.2829   85.3384   17.2141 F       1  UNL1       -0.2044
      8 C          64.0272   84.5777   16.1310 C.3     1  UNL1        0.0607
      9 C          63.8199   84.8861   14.6777 C.3     1  UNL1        0.2223
     10 C          63.5759   85.6740   13.4249 C.3     1  UNL1        0.1959
     11 O          63.5095   84.9742   12.0998 O.3     1  UNL1       -0.3357
     12 C          63.6871   83.4864   12.0276 C.3     1  UNL1        0.2740
     13 C          63.7926   82.1059   11.4507 C.3     1  UNL1        0.0512
     14 C          63.9310   82.6986   13.2804 C.2     1  UNL1        0.3217
     15 N          64.1086   81.2108   13.2082 N.pl3   1  UNL1       -0.2480
     16 N          63.9974   83.3984   14.6055 N.2     1  UNL1       -0.0692
     17 H          64.0650   80.7515   12.3386 H       1  UNL1        0.2882
     18 H          64.2687   80.6937   14.0306 H       1  UNL1        0.2882
     19 C          63.4798   83.7949   10.5743 C.3     1  UNL1        0.4305
     20 F          63.2725   84.1033    9.1210 F       1  UNL1       -0.1670
     21 F          62.1760   84.4605   10.9015 F       1  UNL1       -0.1670
     22 F          64.7836   83.1293   10.2472 F       1  UNL1       -0.1670
     23 N          64.9345   89.9562   14.4491 N.am    1  UNL1       -0.2791
     24 C          64.1855   90.7400   13.4125 C.2     1  UNL1        0.2681
     25 O          62.7736   90.3694   13.0671 O.2     1  UNL1       -0.2681
     26 H          65.8612   90.1994   14.6758 H       1  UNL1        0.1552
     27 C          64.8484   91.8945   12.7213 C.ar    1  UNL1        0.1453
     28 N          65.7118   92.8406   13.5019 N.ar    1  UNL1       -0.2375
     29 C          66.3747   93.9951   12.8105 C.ar    1  UNL1        0.1104
     30 C          66.1741   94.2034   11.3387 C.ar    1  UNL1        0.0776
     31 CL         66.8369   95.3579   10.6475 Cl      1  UNL1       -0.0806
     32 C          65.3107   93.2573   10.5581 C.ar    1  UNL1        0.0260
     33 C          64.6478   92.1028   11.2493 C.ar    1  UNL1        0.0806
     34 CL         63.7844   91.1567   10.4687 Cl      1  UNL1       -0.0805
@<TRIPOS>BOND
     1     9     8    1
     2     9     1    1
     3     1     2   ar
     4     2     3   ar
     5     3    23    1
     6    23    24   am
     7    24    25    2
     8    24    27    1
     9    27    28   ar
    10    28    29   ar
    11    29    30   ar
    12    30    31    1
    13    30    32   ar
    14    32    33   ar
    15    33    34    1
    16     3     4   ar
    17     4     5   ar
    18     5     6   ar
    19     6     7    1
    20     9    10    1
    21    10    11    1
    22    11    12    1
    23    12    13    1
    24    12    19    1
    25    19    20    1
    26    19    21    1
    27    19    22    1
    28    12    14    1
    29    14    15    1
    30    14    16    2
    31    16     9    1
    32     6     1   ar
    33    33    27   ar
    34    23    26    1
    35    15    17    1
    36    15    18    1
@<TRIPOS>MOLECULE
*****
 34 36 0 0 0
SMALL
GASTEIGER

@<TRIPOS>ATOM
      1 C          62.0525   87.3712   10.9688 C.ar    1  UNL1        0.0528
      2 C          63.0306   88.3285   11.5827 C.ar    1  UNL1        0.0167
      3 C          62.6573   89.7702   11.7617 C.ar    1  UNL1        0.0505
      4 C          61.3060   90.2546   11.3267 C.ar    1  UNL1        0.0170
      5 C          60.3279   89.2974   10.7128 C.ar    1  UNL1        0.0307
      6 C          60.7012   87.8556   10.5339 C.ar    1  UNL1        0.1402
      7 F          59.7231   86.8983    9.9199 F       1  UNL1       -0.2044
      8 C          62.5045   86.3974    9.3668 C.3     1  UNL1        0.0607
      9 C          62.4257   85.9294   10.7898 C.3     1  UNL1        0.2223
     10 C          62.2174   85.9621   12.2749 C.3     1  UNL1        0.1959
     11 O          62.4096   84.7155   13.0868 O.3     1  UNL1       -0.3357
     12 C          62.8102   83.4363   12.4136 C.3     1  UNL1        0.2740
     13 C          63.1834   81.9946   12.2345 C.3     1  UNL1        0.0512
     14 C          63.0185   83.4036   10.9285 C.2     1  UNL1        0.3217
     15 N          63.4191   82.1244   10.2553 N.pl3   1  UNL1       -0.2480
     16 N          62.8263   84.6502   10.1166 N.2     1  UNL1       -0.0692
     17 H          63.5453   81.3063   10.7882 H       1  UNL1        0.2882
     18 H          63.5559   82.1030    9.2806 H       1  UNL1        0.2882
     19 C          62.7315   82.9683   13.8365 C.3     1  UNL1        0.4305
     20 F          62.6527   82.5002   15.2595 F       1  UNL1       -0.1670
     21 F          61.6799   81.9707   13.4502 F       1  UNL1       -0.1670
     22 F          63.7829   83.9658   14.2228 F       1  UNL1       -0.1670
     23 N          63.6354   90.7275   12.3756 N.am    1  UNL1       -0.2791
     24 C          64.4648   90.3017   13.5507 C.2     1  UNL1        0.2681
     25 O          64.3160   88.9186   14.1119 O.2     1  UNL1       -0.2681
     26 H          63.7330   91.6353   12.0073 H       1  UNL1        0.1552
     27 C          65.4428   91.2590   14.1647 C.ar    1  UNL1        0.1453
     28 N          66.6494   91.6986   13.3895 N.ar    1  UNL1       -0.2375
     29 C          67.6275   92.6559   14.0035 C.ar    1  UNL1        0.1104
     30 C          67.3990   93.1736   15.3927 C.ar    1  UNL1        0.0776
     31 CL         68.3770   94.1309   16.0066 Cl      1  UNL1       -0.0806
     32 C          66.1924   92.7340   16.1678 C.ar    1  UNL1        0.0260
     33 C          65.2143   91.7768   15.5539 C.ar    1  UNL1        0.0806
     34 CL         64.0077   91.3372   16.3291 Cl      1  UNL1       -0.0805
@<TRIPOS>BOND
     1     9     8    1
     2     9     1    1
     3     1     2   ar
     4     2     3   ar
     5     3    23    1
     6    23    24   am
     7    24    25    2
     8    24    27    1
     9    27    28   ar
    10    28    29   ar
    11    29    30   ar
    12    30    31    1
    13    30    32   ar
    14    32    33   ar
    15    33    34    1
    16     3     4   ar
    17     4     5   ar
    18     5     6   ar
    19     6     7    1
    20     9    10    1
    21    10    11    1
    22    11    12    1
    23    12    13    1
    24    12    19    1
    25    19    20    1
    26    19    21    1
    27    19    22    1
    28    12    14    1
    29    14    15    1
    30    14    16    2
    31    16     9    1
    32     6     1   ar
    33    33    27   ar
    34    23    26    1
    35    15    17    1
    36    15    18    1
@<TRIPOS>MOLECULE
*****
 34 36 0 0 0
SMALL
GASTEIGER

@<TRIPOS>ATOM
      1 C          63.4656   89.9500   12.7684 C.ar    1  UNL1        0.0528
      2 C          63.2173   88.4735   12.8592 C.ar    1  UNL1        0.0167
      3 C          62.7411   87.7176   11.6542 C.ar    1  UNL1        0.0505
      4 C          62.5132   88.4383   10.3586 C.ar    1  UNL1        0.0170
      5 C          62.7615   89.9147   10.2678 C.ar    1  UNL1        0.0307
      6 C          63.2377   90.6706   11.4727 C.ar    1  UNL1        0.1402
      7 F          63.4860   92.1472   11.3820 F       1  UNL1       -0.2044
      8 C          62.5288   90.4193   14.3873 C.3     1  UNL1        0.0607
      9 C          63.9418   90.7059   13.9733 C.3     1  UNL1        0.2223
     10 C          65.1893   90.7301   13.1409 C.3     1  UNL1        0.1959
     11 O          66.4224   91.4106   13.6571 O.3     1  UNL1       -0.3357
     12 C          66.4078   92.0670   15.0059 C.3     1  UNL1        0.2740
     13 C          66.8840   92.8229   16.2108 C.3     1  UNL1        0.0512
     14 C          65.1603   92.0428   15.8383 C.2     1  UNL1        0.3217
     15 N          65.1458   92.6992   17.1870 N.pl3   1  UNL1       -0.2480
     16 N          63.9273   91.3623   15.3221 N.2     1  UNL1       -0.0692
     17 H          65.9550   93.1458   17.5259 H       1  UNL1        0.2882
     18 H          64.3269   92.6833   17.7334 H       1  UNL1        0.2882
     19 C          67.8208   92.3537   14.5919 C.3     1  UNL1        0.4305
     20 F          69.2338   92.6404   14.1779 F       1  UNL1       -0.1670
     21 F          67.3181   93.0845   13.3822 F       1  UNL1       -0.1670
     22 F          68.3234   91.6229   15.8015 F       1  UNL1       -0.1670
     23 N          62.4928   86.2411   11.7450 N.am    1  UNL1       -0.2791
     24 C          63.1195   85.4416   12.8486 C.2     1  UNL1        0.2681
     25 O          63.9946   86.1187   13.8615 O.2     1  UNL1       -0.2681
     26 H          61.9185   85.7967   11.0802 H       1  UNL1        0.1552
     27 C          62.8712   83.9651   12.9394 C.ar    1  UNL1        0.1453
     28 N          62.2812   83.3791   14.1878 N.ar    1  UNL1       -0.2375
     29 C          62.0329   81.9025   14.2785 C.ar    1  UNL1        0.1104
     30 C          62.3747   81.0120   13.1208 C.ar    1  UNL1        0.0776
     31 CL         62.1264   79.5355   13.2116 Cl      1  UNL1       -0.0806
     32 C          62.9647   81.5980   11.8724 C.ar    1  UNL1        0.0260
     33 C          63.2130   83.0745   11.7817 C.ar    1  UNL1        0.0806
     34 CL         63.8030   83.6605   10.5333 Cl      1  UNL1       -0.0805
@<TRIPOS>BOND
     1     9     8    1
     2     9     1    1
     3     1     2   ar
     4     2     3   ar
     5     3    23    1
     6    23    24   am
     7    24    25    2
     8    24    27    1
     9    27    28   ar
    10    28    29   ar
    11    29    30   ar
    12    30    31    1
    13    30    32   ar
    14    32    33   ar
    15    33    34    1
    16     3     4   ar
    17     4     5   ar
    18     5     6   ar
    19     6     7    1
    20     9    10    1
    21    10    11    1
    22    11    12    1
    23    12    13    1
    24    12    19    1
    25    19    20    1
    26    19    21    1
    27    19    22    1
    28    12    14    1
    29    14    15    1
    30    14    16    2
    31    16     9    1
    32     6     1   ar
    33    33    27   ar
    34    23    26    1
    35    15    17    1
    36    15    18    1
@<TRIPOS>MOLECULE
*****
 34 36 0 0 0
SMALL
GASTEIGER

@<TRIPOS>ATOM
      1 C          63.0344   89.8151   11.6885 C.ar    1  UNL1        0.0528
      2 C          62.9446   88.3423   11.9581 C.ar    1  UNL1        0.0167
      3 C          62.1410   87.4609   11.0485 C.ar    1  UNL1        0.0505
      4 C          61.4273   88.0524    9.8692 C.ar    1  UNL1        0.0170
      5 C          61.5170   89.5252    9.5996 C.ar    1  UNL1        0.0307
      6 C          62.3206   90.4065   10.5092 C.ar    1  UNL1        0.1402
      7 F          62.4104   91.8794   10.2396 F       1  UNL1       -0.2044
      8 C          63.1148   89.8634   13.6146 C.3     1  UNL1        0.0607
      9 C          63.8380   90.6965   12.5981 C.3     1  UNL1        0.2223
     10 C          64.2820   91.2234   11.2658 C.3     1  UNL1        0.1959
     11 O          65.2785   92.3424   11.1961 O.3     1  UNL1       -0.3357
     12 C          65.8309   92.9345   12.4588 C.3     1  UNL1        0.2740
     13 C          66.6345   93.8158   13.3684 C.3     1  UNL1        0.0512
     14 C          65.3869   92.4076   13.7911 C.2     1  UNL1        0.3217
     15 N          65.9393   92.9996   15.0538 N.pl3   1  UNL1       -0.2480
     16 N          64.3904   91.2886   13.8608 N.2     1  UNL1       -0.0692
     17 H          66.5933   93.7341   15.0080 H       1  UNL1        0.2882
     18 H          65.6479   92.6538   15.9282 H       1  UNL1        0.2882
     19 C          66.5541   93.7675   11.4423 C.3     1  UNL1        0.4305
     20 F          67.2772   94.6006   10.4259 F       1  UNL1       -0.1670
     21 F          66.0423   95.0146   12.1003 F       1  UNL1       -0.1670
     22 F          67.0658   92.5205   10.7844 F       1  UNL1       -0.1670
     23 N          62.0512   85.9880   11.3181 N.am    1  UNL1       -0.2791
     24 C          62.8044   85.3889   12.4686 C.2     1  UNL1        0.2681
     25 O          63.6474   86.2627   13.3495 O.2     1  UNL1       -0.2681
     26 H          61.4979   85.4146   10.7399 H       1  UNL1        0.1552
     27 C          62.7146   83.9161   12.7382 C.ar    1  UNL1        0.1453
     28 N          62.1727   83.4251   14.0479 N.ar    1  UNL1       -0.2375
     29 C          62.0829   81.9522   14.3175 C.ar    1  UNL1        0.1104
     30 C          62.5351   80.9704   13.2775 C.ar    1  UNL1        0.0776
     31 CL         62.4453   79.4976   13.5471 Cl      1  UNL1       -0.0806
     32 C          63.0770   81.4615   11.9678 C.ar    1  UNL1        0.0260
     33 C          63.1668   82.9343   11.6982 C.ar    1  UNL1        0.0806
     34 CL         63.7087   83.4253   10.3886 Cl      1  UNL1       -0.0805
@<TRIPOS>BOND
     1     9     8    1
     2     9     1    1
     3     1     2   ar
     4     2     3   ar
     5     3    23    1
     6    23    24   am
     7    24    25    2
     8    24    27    1
     9    27    28   ar
    10    28    29   ar
    11    29    30   ar
    12    30    31    1
    13    30    32   ar
    14    32    33   ar
    15    33    34    1
    16     3     4   ar
    17     4     5   ar
    18     5     6   ar
    19     6     7    1
    20     9    10    1
    21    10    11    1
    22    11    12    1
    23    12    13    1
    24    12    19    1
    25    19    20    1
    26    19    21    1
    27    19    22    1
    28    12    14    1
    29    14    15    1
    30    14    16    2
    31    16     9    1
    32     6     1   ar
    33    33    27   ar
    34    23    26    1
    35    15    17    1
    36    15    18    1
@<TRIPOS>MOLECULE
*****
 34 36 0 0 0
SMALL
GASTEIGER

@<TRIPOS>ATOM
      1 C          62.2835   89.9352   11.2921 C.ar    1  UNL1        0.0528
      2 C          62.4507   88.4510   11.4307 C.ar    1  UNL1        0.0167
      3 C          61.2463   87.5569   11.4257 C.ar    1  UNL1        0.0505
      4 C          59.8747   88.1470   11.2821 C.ar    1  UNL1        0.0170
      5 C          59.7075   89.6312   11.1436 C.ar    1  UNL1        0.0307
      6 C          60.9119   90.5252   11.1486 C.ar    1  UNL1        0.1402
      7 F          60.7447   92.0095   11.0100 F       1  UNL1       -0.2044
      8 C          63.1571   90.8461    9.8341 C.3     1  UNL1        0.0607
      9 C          63.4879   90.8294   11.2971 C.3     1  UNL1        0.2223
     10 C          63.4004   90.5021   12.7583 C.3     1  UNL1        0.1959
     11 O          64.4024   91.0748   13.7165 O.3     1  UNL1       -0.3357
     12 C          65.4918   91.9747   13.2133 C.3     1  UNL1        0.2740
     13 C          66.6962   92.8689   13.2183 C.3     1  UNL1        0.0512
     14 C          65.5793   92.3020   11.7522 C.2     1  UNL1        0.3217
     15 N          66.6688   93.2020   11.2490 N.pl3   1  UNL1       -0.2480
     16 N          64.5773   91.7293   10.7940 N.2     1  UNL1       -0.0692
     17 H          67.3265   93.5779   11.8779 H       1  UNL1        0.2882
     18 H          66.7262   93.4168   10.2900 H       1  UNL1        0.2882
     19 C          65.8226   91.9580   14.6764 C.3     1  UNL1        0.4305
     20 F          66.1535   91.9413   16.1394 F       1  UNL1       -0.1670
     21 F          65.9960   93.4478   14.6542 F       1  UNL1       -0.1670
     22 F          65.6493   90.4682   14.6984 F       1  UNL1       -0.1670
     23 N          61.4135   86.0727   11.5642 N.am    1  UNL1       -0.2791
     24 C          62.4583   85.5185   12.4869 C.2     1  UNL1        0.2681
     25 O          63.3359   86.4486   13.2709 O.2     1  UNL1       -0.2681
     26 H          60.8375   85.4622   11.0496 H       1  UNL1        0.1552
     27 C          62.6255   84.0343   12.6254 C.ar    1  UNL1        0.1453
     28 N          62.2625   83.3557   13.9129 N.ar    1  UNL1       -0.2375
     29 C          62.4297   81.8714   14.0515 C.ar    1  UNL1        0.1104
     30 C          62.9599   81.0659   12.9025 C.ar    1  UNL1        0.0776
     31 CL         63.1271   79.5818   13.0411 Cl      1  UNL1       -0.0806
     32 C          63.3229   81.7446   11.6151 C.ar    1  UNL1        0.0260
     33 C          63.1557   83.2288   11.4765 C.ar    1  UNL1        0.0806
     34 CL         63.5187   83.9075   10.1890 Cl      1  UNL1       -0.0805
@<TRIPOS>BOND
     1     9     8    1
     2     9     1    1
     3     1     2   ar
     4     2     3   ar
     5     3    23    1
     6    23    24   am
     7    24    25    2
     8    24    27    1
     9    27    28   ar
    10    28    29   ar
    11    29    30   ar
    12    30    31    1
    13    30    32   ar
    14    32    33   ar
    15    33    34    1
    16     3     4   ar
    17     4     5   ar
    18     5     6   ar
    19     6     7    1
    20     9    10    1
    21    10    11    1
    22    11    12    1
    23    12    13    1
    24    12    19    1
    25    19    20    1
    26    19    21    1
    27    19    22    1
    28    12    14    1
    29    14    15    1
    30    14    16    2
    31    16     9    1
    32     6     1   ar
    33    33    27   ar
    34    23    26    1
    35    15    17    1
    36    15    18    1
@<TRIPOS>MOLECULE
*****
 34 36 0 0 0
SMALL
GASTEIGER

@<TRIPOS>ATOM
      1 C          63.9250   85.9806   15.2177 C.ar    1  UNL1        0.0528
      2 C          64.5302   87.2036   14.5948 C.ar    1  UNL1        0.0167
      3 C          64.2824   88.5539   15.1991 C.ar    1  UNL1        0.0505
      4 C          63.4293   88.6812   16.4263 C.ar    1  UNL1        0.0170
      5 C          62.8241   87.4583   17.0492 C.ar    1  UNL1        0.0307
      6 C          63.0719   86.1080   16.4449 C.ar    1  UNL1        0.1402
      7 F          62.4666   84.8850   17.0679 F       1  UNL1       -0.2044
      8 C          65.5455   85.2237   14.4969 C.3     1  UNL1        0.0607
      9 C          64.1728   84.6303   14.6134 C.3     1  UNL1        0.2223
     10 C          62.7141   84.5058   14.9398 C.3     1  UNL1        0.1959
     11 O          61.9798   83.2371   14.6215 O.3     1  UNL1       -0.3357
     12 C          62.7044   82.0929   13.9767 C.3     1  UNL1        0.2740
     13 C          62.9523   80.7426   13.3724 C.3     1  UNL1        0.0512
     14 C          64.1631   82.2173   13.6503 C.2     1  UNL1        0.3217
     15 N          64.8877   81.0730   13.0055 N.pl3   1  UNL1       -0.2480
     16 N          64.8974   83.4860   13.9686 N.2     1  UNL1       -0.0692
     17 H          64.4059   80.2403   12.7966 H       1  UNL1        0.2882
     18 H          65.8452   81.1547   12.7913 H       1  UNL1        0.2882
     19 C          61.3317   81.4994   14.0932 C.3     1  UNL1        0.4305
     20 F          59.9590   80.9060   14.2098 F       1  UNL1       -0.1670
     21 F          60.9116   82.6431   14.9682 F       1  UNL1       -0.1670
     22 F          61.7519   80.3558   13.2183 F       1  UNL1       -0.1670
     23 N          64.8876   89.7769   14.5762 N.am    1  UNL1       -0.2791
     24 C          64.1648   90.4932   13.4742 C.2     1  UNL1        0.2681
     25 O          62.8367   89.9865   12.9951 O.2     1  UNL1       -0.2681
     26 H          65.7593   90.1095   14.8907 H       1  UNL1        0.1552
     27 C          64.7700   91.7162   12.8513 C.ar    1  UNL1        0.1453
     28 N          65.6223   92.6344   13.6761 N.ar    1  UNL1       -0.2375
     29 C          66.2275   93.8574   13.0531 C.ar    1  UNL1        0.1104
     30 C          65.9804   94.1622   11.6054 C.ar    1  UNL1        0.0776
     31 CL         66.5855   95.3851   10.9825 Cl      1  UNL1       -0.0806
     32 C          65.1280   93.2439   10.7806 C.ar    1  UNL1        0.0260
     33 C          64.5228   92.0210   11.4035 C.ar    1  UNL1        0.0806
     34 CL         63.6705   91.1027   10.5786 Cl      1  UNL1       -0.0805
@<TRIPOS>BOND
     1     9     8    1
     2     9     1    1
     3     1     2   ar
     4     2     3   ar
     5     3    23    1
     6    23    24   am
     7    24    25    2
     8    24    27    1
     9    27    28   ar
    10    28    29   ar
    11    29    30   ar
    12    30    31    1
    13    30    32   ar
    14    32    33   ar
    15    33    34    1
    16     3     4   ar
    17     4     5   ar
    18     5     6   ar
    19     6     7    1
    20     9    10    1
    21    10    11    1
    22    11    12    1
    23    12    13    1
    24    12    19    1
    25    19    20    1
    26    19    21    1
    27    19    22    1
    28    12    14    1
    29    14    15    1
    30    14    16    2
    31    16     9    1
    32     6     1   ar
    33    33    27   ar
    34    23    26    1
    35    15    17    1
    36    15    18    1
@<TRIPOS>MOLECULE
*****
 34 36 0 0 0
SMALL
GASTEIGER

@<TRIPOS>ATOM
      1 C          61.9908   88.2407   10.7137 C.ar    1  UNL1        0.0528
      2 C          62.9083   89.3334   10.2509 C.ar    1  UNL1        0.0167
      3 C          62.4768   90.7666   10.3487 C.ar    1  UNL1        0.0505
      4 C          61.1278   91.1072   10.9093 C.ar    1  UNL1        0.0170
      5 C          60.2104   90.0145   11.3721 C.ar    1  UNL1        0.0307
      6 C          60.6418   88.5813   11.2743 C.ar    1  UNL1        0.1402
      7 F          59.7244   87.4885   11.7372 F       1  UNL1       -0.2044
      8 C          62.0611   87.0690    9.1837 C.3     1  UNL1        0.0607
      9 C          62.4223   86.8074   10.6159 C.3     1  UNL1        0.2223
     10 C          62.6336   87.0436   12.0820 C.3     1  UNL1        0.1959
     11 O          63.1510   85.9373   12.9529 O.3     1  UNL1       -0.3357
     12 C          63.4570   84.5949   12.3577 C.3     1  UNL1        0.2740
     13 C          63.8884   83.1616   12.2599 C.3     1  UNL1        0.0512
     14 C          63.2457   84.3587   10.8916 C.2     1  UNL1        0.3217
     15 N          63.5517   83.0163   10.2964 N.pl3   1  UNL1       -0.2480
     16 N          62.7283   85.4650   10.0207 N.2     1  UNL1       -0.0692
     17 H          63.8912   82.2902   10.8680 H       1  UNL1        0.2882
     18 H          63.4130   82.8613    9.3341 H       1  UNL1        0.2882
     19 C          63.8182   84.3333   13.7899 C.3     1  UNL1        0.4305
     20 F          64.1794   84.0716   15.2221 F       1  UNL1       -0.1670
     21 F          62.3790   84.4923   14.1819 F       1  UNL1       -0.1670
     22 F          65.2572   84.1742   13.3979 F       1  UNL1       -0.1670
     23 N          63.3943   91.8594    9.8858 N.am    1  UNL1       -0.2791
     24 C          64.4575   92.3851   10.8041 C.2     1  UNL1        0.2681
     25 O          64.6033   91.8181   12.1851 O.2     1  UNL1       -0.2681
     26 H          63.2986   92.2316    8.9794 H       1  UNL1        0.1552
     27 C          65.3750   93.4778   10.3413 C.ar    1  UNL1        0.1453
     28 N          64.8670   94.8843   10.2242 N.ar    1  UNL1       -0.2375
     29 C          65.7845   95.9771    9.7614 C.ar    1  UNL1        0.1104
     30 C          67.2100   95.6633    9.4157 C.ar    1  UNL1        0.0776
     31 CL         68.1275   96.7560    8.9529 Cl      1  UNL1       -0.0806
     32 C          67.7180   94.2568    9.5328 C.ar    1  UNL1        0.0260
     33 C          66.8006   93.1641    9.9956 C.ar    1  UNL1        0.0806
     34 CL         67.3086   91.7576   10.1127 Cl      1  UNL1       -0.0805
@<TRIPOS>BOND
     1     9     8    1
     2     9     1    1
     3     1     2   ar
     4     2     3   ar
     5     3    23    1
     6    23    24   am
     7    24    25    2
     8    24    27    1
     9    27    28   ar
    10    28    29   ar
    11    29    30   ar
    12    30    31    1
    13    30    32   ar
    14    32    33   ar
    15    33    34    1
    16     3     4   ar
    17     4     5   ar
    18     5     6   ar
    19     6     7    1
    20     9    10    1
    21    10    11    1
    22    11    12    1
    23    12    13    1
    24    12    19    1
    25    19    20    1
    26    19    21    1
    27    19    22    1
    28    12    14    1
    29    14    15    1
    30    14    16    2
    31    16     9    1
    32     6     1   ar
    33    33    27   ar
    34    23    26    1
    35    15    17    1
    36    15    18    1
