@<TRIPOS>MOLECULE
*****
 26 29 0 0 0
SMALL
GASTEIGER

@<TRIPOS>ATOM
      1 C          61.7548   88.6126   10.7365 C.ar    1  UNL1       -0.0022
      2 C          61.8554   89.7904    9.8132 C.ar    1  UNL1       -0.0011
      3 C          62.7961   90.9147   10.1314 C.ar    1  UNL1        0.0189
      4 C          63.6361   90.8612   11.3728 C.ar    1  UNL1        0.0824
      5 C          63.5355   89.6833   12.2963 C.ar    1  UNL1        0.0189
      6 C          62.5948   88.5591   11.9781 C.ar    1  UNL1       -0.0011
      7 N          64.5768   91.9854   11.6910 N.ar    1  UNL1       -0.2339
      8 N          65.0206   93.0590   10.7421 N.ar    1  UNL1       -0.1617
      9 C          65.9569   93.9705   11.4787 C.ar    1  UNL1        0.1720
     10 C          66.0917   93.4603   12.8828 C.ar    1  UNL1        0.0443
     11 C          65.2387   92.2334   13.0140 C.ar    1  UNL1        0.0628
     12 C          65.1750   91.5006   14.3213 C.3     1  UNL1        0.0777
     13 C          65.9642   91.9947   15.4972 C.3     1  UNL1        0.1489
     14 O          66.8172   93.2216   15.3660 O.3     1  UNL1       -0.3485
     15 C          66.8809   93.9544   14.0588 C.3     1  UNL1        0.1713
     16 C          66.6387   95.1799   10.9108 C.3     1  UNL1        0.4363
     17 F          67.3205   96.3894   10.3430 F       1  UNL1       -0.1644
     18 F          65.7904   96.0643   11.7758 F       1  UNL1       -0.1644
     19 F          67.4870   94.2956   10.0459 F       1  UNL1       -0.1644
     20 C          60.8141   87.4884   10.4183 C.3     1  UNL1        0.1201
     21 O          58.6556   86.8278    8.0616 O.2     1  UNL1       -0.2749
     22 C          60.0654   86.3206    8.1334 C.2     1  UNL1        0.2259
     23 C          60.7306   85.4207    7.1346 C.3     1  UNL1        0.0870
     24 C          62.1339   85.1682    7.6005 C.3     1  UNL1        0.0311
     25 C          62.3360   85.9119    8.8873 C.3     1  UNL1        0.0942
     26 N          61.0575   86.6243    9.2167 N.am    1  UNL1       -0.2754
@<TRIPOS>BOND
     1    21    22    2
     2    22    23    1
     3    23    24    1
     4    24    25    1
     5    25    26    1
     6    26    20    1
     7    20     1    1
     8     1     2   ar
     9     2     3   ar
    10     3     4   ar
    11     4     7    1
    12     7     8   ar
    13     8     9   ar
    14     9    16    1
    15    16    17    1
    16    16    18    1
    17    16    19    1
    18     9    10   ar
    19    10    11   ar
    20    11    12    1
    21    12    13    1
    22    13    14    1
    23    14    15    1
    24     4     5   ar
    25     5     6   ar
    26    26    22   am
    27     6     1   ar
    28    11     7   ar
    29    15    10    1
@<TRIPOS>MOLECULE
*****
 26 29 0 0 0
SMALL
GASTEIGER

@<TRIPOS>ATOM
      1 C          61.5992   88.2085   10.5365 C.ar    1  UNL1       -0.0022
      2 C          62.4232   87.7029   11.6834 C.ar    1  UNL1       -0.0011
      3 C          63.3633   88.6287   12.3970 C.ar    1  UNL1        0.0189
      4 C          63.4793   90.0600   11.9638 C.ar    1  UNL1        0.0824
      5 C          62.6552   90.5656   10.8169 C.ar    1  UNL1        0.0189
      6 C          61.7151   89.6398   10.1033 C.ar    1  UNL1       -0.0011
      7 N          64.4193   90.9858   12.6775 N.ar    1  UNL1       -0.2339
      8 N          64.8685   90.8594   14.1030 N.ar    1  UNL1       -0.1617
      9 C          65.8020   91.9961   14.3973 C.ar    1  UNL1        0.1720
     10 C          65.9297   92.8249   13.1537 C.ar    1  UNL1        0.0443
     11 C          65.0752   92.2005   12.0907 C.ar    1  UNL1        0.0628
     12 C          65.0047   92.8188   10.7259 C.3     1  UNL1        0.0777
     13 C          65.7888   94.0614   10.4240 C.3     1  UNL1        0.1489
     14 O          66.6433   94.6857   11.4870 O.3     1  UNL1       -0.3485
     15 C          66.7138   94.0675   12.8518 C.3     1  UNL1        0.1713
     16 C          66.4874   92.2579   15.7057 C.3     1  UNL1        0.4363
     17 F          67.1727   92.5198   17.0140 F       1  UNL1       -0.1644
     18 F          65.1643   92.5816   16.3340 F       1  UNL1       -0.1644
     19 F          67.8103   91.9343   15.0774 F       1  UNL1       -0.1644
     20 C          60.6591   87.2826    9.8229 C.3     1  UNL1        0.1201
     21 O          58.9945   86.2401    7.2168 O.2     1  UNL1       -0.2749
     22 C          60.4116   85.8858    7.5573 C.2     1  UNL1        0.2259
     23 C          61.3125   84.9900    6.7598 C.3     1  UNL1        0.0870
     24 C          62.6345   84.9156    7.4649 C.3     1  UNL1        0.0311
     25 C          62.5506   85.7653    8.6980 C.3     1  UNL1        0.0942
     26 N          61.1768   86.3650    8.7553 N.am    1  UNL1       -0.2754
@<TRIPOS>BOND
     1    21    22    2
     2    22    23    1
     3    23    24    1
     4    24    25    1
     5    25    26    1
     6    26    20    1
     7    20     1    1
     8     1     2   ar
     9     2     3   ar
    10     3     4   ar
    11     4     7    1
    12     7     8   ar
    13     8     9   ar
    14     9    16    1
    15    16    17    1
    16    16    18    1
    17    16    19    1
    18     9    10   ar
    19    10    11   ar
    20    11    12    1
    21    12    13    1
    22    13    14    1
    23    14    15    1
    24     4     5   ar
    25     5     6   ar
    26    26    22   am
    27     6     1   ar
    28    11     7   ar
    29    15    10    1
@<TRIPOS>MOLECULE
*****
 26 29 0 0 0
SMALL
GASTEIGER

@<TRIPOS>ATOM
      1 C          62.3606   88.5702   11.0916 C.ar    1  UNL1       -0.0022
      2 C          63.1293   88.6679   12.3759 C.ar    1  UNL1       -0.0011
      3 C          63.9738   89.8759   12.6545 C.ar    1  UNL1        0.0189
      4 C          64.0497   90.9861   11.6488 C.ar    1  UNL1        0.0824
      5 C          63.2809   90.8884   10.3643 C.ar    1  UNL1        0.0189
      6 C          62.4364   89.6804   10.0858 C.ar    1  UNL1       -0.0011
      7 N          64.8942   92.1941   11.9273 N.ar    1  UNL1       -0.2339
      8 N          65.1747   93.3137   10.9693 N.ar    1  UNL1       -0.1617
      9 C          66.0603   94.3061   11.6627 C.ar    1  UNL1        0.1720
     10 C          66.3271   93.7999   13.0493 C.ar    1  UNL1        0.0443
     11 C          65.6064   92.4946   13.2128 C.ar    1  UNL1        0.0628
     12 C          65.6917   91.7482   14.5111 C.3     1  UNL1        0.0777
     13 C          66.4978   92.3072   15.6459 C.3     1  UNL1        0.1489
     14 O          67.2185   93.6125   15.4823 O.3     1  UNL1       -0.3485
     15 C          67.1332   94.3588   14.1840 C.3     1  UNL1        0.1713
     16 C          66.5868   95.5809   11.0731 C.3     1  UNL1        0.4363
     17 F          67.1132   96.8559   10.4835 F       1  UNL1       -0.1644
     18 F          65.7250   96.3713   12.0126 F       1  UNL1       -0.1644
     19 F          67.4485   94.7906   10.1336 F       1  UNL1       -0.1644
     20 C          61.5161   87.3622   10.8131 C.3     1  UNL1        0.1201
     21 O          62.2160   85.1428   13.1009 O.2     1  UNL1       -0.2749
     22 C          62.4876   85.0103   11.6318 C.2     1  UNL1        0.2259
     23 C          63.1285   83.8344   10.9562 C.3     1  UNL1        0.0870
     24 C          63.2030   84.1278    9.4870 C.3     1  UNL1        0.0311
     25 C          62.6080   85.4849    9.2546 C.3     1  UNL1        0.0942
     26 N          62.1658   86.0305   10.5802 N.am    1  UNL1       -0.2754
@<TRIPOS>BOND
     1    21    22    2
     2    22    23    1
     3    23    24    1
     4    24    25    1
     5    25    26    1
     6    26    20    1
     7    20     1    1
     8     1     2   ar
     9     2     3   ar
    10     3     4   ar
    11     4     7    1
    12     7     8   ar
    13     8     9   ar
    14     9    16    1
    15    16    17    1
    16    16    18    1
    17    16    19    1
    18     9    10   ar
    19    10    11   ar
    20    11    12    1
    21    12    13    1
    22    13    14    1
    23    14    15    1
    24     4     5   ar
    25     5     6   ar
    26    26    22   am
    27     6     1   ar
    28    11     7   ar
    29    15    10    1
@<TRIPOS>MOLECULE
*****
 26 29 0 0 0
SMALL
GASTEIGER

@<TRIPOS>ATOM
      1 C          63.1089   89.8047   11.9910 C.ar    1  UNL1       -0.0022
      2 C          63.7539   89.0947   13.1442 C.ar    1  UNL1       -0.0011
      3 C          63.7345   87.5962   13.2079 C.ar    1  UNL1        0.0189
      4 C          63.0702   86.8077   12.1185 C.ar    1  UNL1        0.0824
      5 C          62.4252   87.5177   10.9652 C.ar    1  UNL1        0.0189
      6 C          62.4446   89.0163   10.9015 C.ar    1  UNL1       -0.0011
      7 N          63.0509   85.3091   12.1822 N.ar    1  UNL1       -0.2339
      8 N          63.1662   84.3754   11.0139 N.ar    1  UNL1       -0.1617
      9 C          63.0994   82.9705   11.5351 C.ar    1  UNL1        0.1720
     10 C          62.9428   83.0359   13.0255 C.ar    1  UNL1        0.0443
     11 C          62.9128   84.4813   13.4254 C.ar    1  UNL1        0.0628
     12 C          62.7636   84.8568   14.8699 C.3     1  UNL1        0.0777
     13 C          62.6444   83.7870   15.9145 C.3     1  UNL1        0.1489
     14 O          62.6744   82.3416   15.5146 O.3     1  UNL1       -0.3485
     15 C          62.8236   81.9660   14.0701 C.3     1  UNL1        0.1713
     16 C          63.1758   81.7197   10.7107 C.3     1  UNL1        0.4363
     17 F          63.2522   80.4689    9.8862 F       1  UNL1       -0.1644
     18 F          64.2970   82.3149    9.9116 F       1  UNL1       -0.1644
     19 F          62.0546   81.1245   11.5097 F       1  UNL1       -0.1644
     20 C          63.1283   91.3033   11.9273 C.3     1  UNL1        0.1201
     21 O          65.0500   92.0540   14.4558 O.2     1  UNL1       -0.2749
     22 C          65.3196   92.3790   13.0165 C.2     1  UNL1        0.2259
     23 C          66.5198   93.1061   12.4867 C.3     1  UNL1        0.0870
     24 C          66.3783   93.2105   10.9970 C.3     1  UNL1        0.0311
     25 C          65.0907   92.5478   10.6061 C.3     1  UNL1        0.0942
     26 N          64.4362   92.0339   11.8543 N.am    1  UNL1       -0.2754
@<TRIPOS>BOND
     1    21    22    2
     2    22    23    1
     3    23    24    1
     4    24    25    1
     5    25    26    1
     6    26    20    1
     7    20     1    1
     8     1     2   ar
     9     2     3   ar
    10     3     4   ar
    11     4     7    1
    12     7     8   ar
    13     8     9   ar
    14     9    16    1
    15    16    17    1
    16    16    18    1
    17    16    19    1
    18     9    10   ar
    19    10    11   ar
    20    11    12    1
    21    12    13    1
    22    13    14    1
    23    14    15    1
    24     4     5   ar
    25     5     6   ar
    26    26    22   am
    27     6     1   ar
    28    11     7   ar
    29    15    10    1
@<TRIPOS>MOLECULE
*****
 26 29 0 0 0
SMALL
GASTEIGER

@<TRIPOS>ATOM
      1 C          59.3857   88.4728    7.6903 C.ar    1  UNL1       -0.0022
      2 C          60.0158   89.3454    8.7350 C.ar    1  UNL1       -0.0011
      3 C          60.8493   88.7325    9.8211 C.ar    1  UNL1        0.0189
      4 C          61.0528   87.2470    9.8625 C.ar    1  UNL1        0.0824
      5 C          60.4227   86.3743    8.8178 C.ar    1  UNL1        0.0189
      6 C          59.5892   86.9872    7.7317 C.ar    1  UNL1       -0.0011
      7 N          61.8863   86.6342   10.9486 N.ar    1  UNL1       -0.2339
      8 N          62.0755   85.1663   11.1928 N.ar    1  UNL1       -0.1617
      9 C          62.9831   85.0065   12.3763 C.ar    1  UNL1        0.1720
     10 C          63.3549   86.3756   12.8636 C.ar    1  UNL1        0.0443
     11 C          62.6770   87.3816   11.9812 C.ar    1  UNL1        0.0628
     12 C          62.8673   88.8481   12.2320 C.3     1  UNL1        0.0777
     13 C          63.7355   89.3087   13.3651 C.3     1  UNL1        0.1489
     14 O          64.4133   88.3028   14.2475 O.3     1  UNL1       -0.3485
     15 C          64.2230   86.8362   13.9968 C.3     1  UNL1        0.1713
     16 C          63.4390   83.7060   12.9686 C.3     1  UNL1        0.4363
     17 F          63.8947   82.4055   13.5610 F       1  UNL1       -0.1644
     18 F          62.3797   83.8158   14.0250 F       1  UNL1       -0.1644
     19 F          64.4982   83.5962   11.9123 F       1  UNL1       -0.1644
     20 C          58.5522   89.0856    6.6042 C.3     1  UNL1        0.1201
     21 O          56.8424   91.5432    5.3054 O.2     1  UNL1       -0.2749
     22 C          58.3220   91.3335    5.1760 C.2     1  UNL1        0.2259
     23 C          59.2754   92.2166    4.4270 C.3     1  UNL1        0.0870
     24 C          60.6507   91.6327    4.5611 C.3     1  UNL1        0.0311
     25 C          60.5472   90.3889    5.3929 C.3     1  UNL1        0.0942
     26 N          59.1079   90.2039    5.7731 N.am    1  UNL1       -0.2754
@<TRIPOS>BOND
     1    21    22    2
     2    22    23    1
     3    23    24    1
     4    24    25    1
     5    25    26    1
     6    26    20    1
     7    20     1    1
     8     1     2   ar
     9     2     3   ar
    10     3     4   ar
    11     4     7    1
    12     7     8   ar
    13     8     9   ar
    14     9    16    1
    15    16    17    1
    16    16    18    1
    17    16    19    1
    18     9    10   ar
    19    10    11   ar
    20    11    12    1
    21    12    13    1
    22    13    14    1
    23    14    15    1
    24     4     5   ar
    25     5     6   ar
    26    26    22   am
    27     6     1   ar
    28    11     7   ar
    29    15    10    1
@<TRIPOS>MOLECULE
*****
 26 29 0 0 0
SMALL
GASTEIGER

@<TRIPOS>ATOM
      1 C          62.5783   86.7597   12.1110 C.ar    1  UNL1       -0.0022
      2 C          63.4903   86.7377   13.3016 C.ar    1  UNL1       -0.0011
      3 C          64.2274   87.9804   13.7048 C.ar    1  UNL1        0.0189
      4 C          64.0525   89.2449   12.9174 C.ar    1  UNL1        0.0824
      5 C          63.1405   89.2669   11.7267 C.ar    1  UNL1        0.0189
      6 C          62.4034   88.0243   11.3235 C.ar    1  UNL1       -0.0011
      7 N          64.7896   90.4876   13.3206 N.ar    1  UNL1       -0.2339
      8 N          65.4149   90.7466   14.6592 N.ar    1  UNL1       -0.1617
      9 C          66.0425   92.1085   14.6218 C.ar    1  UNL1        0.1720
     10 C          65.8051   92.6911   13.2602 C.ar    1  UNL1        0.0443
     11 C          65.0308   91.6893   12.4559 C.ar    1  UNL1        0.0628
     12 C          64.6453   92.0008   11.0402 C.3     1  UNL1        0.0777
     13 C          65.0342   93.3141   10.4287 C.3     1  UNL1        0.1489
     14 O          65.8086   94.3159   11.2329 O.3     1  UNL1       -0.3485
     15 C          66.1940   94.0044   12.6486 C.3     1  UNL1        0.1713
     16 C          66.7784   92.7714   15.7484 C.3     1  UNL1        0.4363
     17 F          67.5144   93.4343   16.8749 F       1  UNL1       -0.1644
     18 F          68.0179   92.8278   14.9055 F       1  UNL1       -0.1644
     19 F          65.5390   92.7150   16.5912 F       1  UNL1       -0.1644
     20 C          61.8412   85.5170   11.7078 C.3     1  UNL1        0.1201
     21 O          62.1795   82.9530   13.6980 O.2     1  UNL1       -0.2749
     22 C          62.7563   83.0811   12.3194 C.2     1  UNL1        0.2259
     23 C          63.5899   82.0531   11.6134 C.3     1  UNL1        0.0870
     24 C          63.9496   82.5963   10.2622 C.3     1  UNL1        0.0311
     25 C          63.3384   83.9600   10.1331 C.3     1  UNL1        0.0942
     26 N          62.6008   84.2597   11.4045 N.am    1  UNL1       -0.2754
@<TRIPOS>BOND
     1    21    22    2
     2    22    23    1
     3    23    24    1
     4    24    25    1
     5    25    26    1
     6    26    20    1
     7    20     1    1
     8     1     2   ar
     9     2     3   ar
    10     3     4   ar
    11     4     7    1
    12     7     8   ar
    13     8     9   ar
    14     9    16    1
    15    16    17    1
    16    16    18    1
    17    16    19    1
    18     9    10   ar
    19    10    11   ar
    20    11    12    1
    21    12    13    1
    22    13    14    1
    23    14    15    1
    24     4     5   ar
    25     5     6   ar
    26    26    22   am
    27     6     1   ar
    28    11     7   ar
    29    15    10    1
@<TRIPOS>MOLECULE
*****
 26 29 0 0 0
SMALL
GASTEIGER

@<TRIPOS>ATOM
      1 C          63.1797   84.5697   14.8690 C.ar    1  UNL1       -0.0022
      2 C          63.1735   85.0624   13.4523 C.ar    1  UNL1       -0.0011
      3 C          63.5336   86.4873   13.1522 C.ar    1  UNL1        0.0189
      4 C          63.8999   87.4195   14.2687 C.ar    1  UNL1        0.0824
      5 C          63.9062   86.9267   15.6855 C.ar    1  UNL1        0.0189
      6 C          63.5460   85.5018   15.9856 C.ar    1  UNL1       -0.0011
      7 N          64.2601   88.8443   13.9686 N.ar    1  UNL1       -0.2339
      8 N          65.1244   89.7321   14.8141 N.ar    1  UNL1       -0.1617
      9 C          65.2175   91.0680   14.1383 C.ar    1  UNL1        0.1720
     10 C          64.4108   91.0059   12.8752 C.ar    1  UNL1        0.0443
     11 C          63.8191   89.6315   12.7703 C.ar    1  UNL1        0.0628
     12 C          62.9551   89.2745   11.5973 C.3     1  UNL1        0.0777
     13 C          62.6829   90.2918   10.5291 C.3     1  UNL1        0.1489
     14 O          63.2747   91.6661   10.6340 O.3     1  UNL1       -0.3485
     15 C          64.1387   92.0232   11.8071 C.3     1  UNL1        0.1713
     16 C          65.9830   92.2573   14.6379 C.3     1  UNL1        0.4363
     17 F          66.7485   93.4466   15.1376 F       1  UNL1       -0.1644
     18 F          65.1109   92.3065   15.8573 F       1  UNL1       -0.1644
     19 F          66.8552   92.2082   13.4186 F       1  UNL1       -0.1644
     20 C          62.8196   83.1448   15.1691 C.3     1  UNL1        0.1201
     21 O          60.5296   80.9150   14.5108 O.2     1  UNL1       -0.2749
     22 C          61.8289   81.0862   13.7813 C.2     1  UNL1        0.2259
     23 C          62.3039   80.2626   12.6211 C.3     1  UNL1        0.0870
     24 C          63.6501   80.7785   12.2067 C.3     1  UNL1        0.0311
     25 C          64.0071   81.9209   13.1106 C.3     1  UNL1        0.0942
     26 N          62.8815   82.1112   14.0839 N.am    1  UNL1       -0.2754
@<TRIPOS>BOND
     1    21    22    2
     2    22    23    1
     3    23    24    1
     4    24    25    1
     5    25    26    1
     6    26    20    1
     7    20     1    1
     8     1     2   ar
     9     2     3   ar
    10     3     4   ar
    11     4     7    1
    12     7     8   ar
    13     8     9   ar
    14     9    16    1
    15    16    17    1
    16    16    18    1
    17    16    19    1
    18     9    10   ar
    19    10    11   ar
    20    11    12    1
    21    12    13    1
    22    13    14    1
    23    14    15    1
    24     4     5   ar
    25     5     6   ar
    26    26    22   am
    27     6     1   ar
    28    11     7   ar
    29    15    10    1
@<TRIPOS>MOLECULE
*****
 26 29 0 0 0
SMALL
GASTEIGER

@<TRIPOS>ATOM
      1 C          64.4106   91.0353   13.5939 C.ar    1  UNL1       -0.0022
      2 C          64.3964   89.6714   14.2178 C.ar    1  UNL1       -0.0011
      3 C          63.8315   88.5061   13.4607 C.ar    1  UNL1        0.0189
      4 C          63.2808   88.7048   12.0798 C.ar    1  UNL1        0.0824
      5 C          63.2950   90.0689   11.4558 C.ar    1  UNL1        0.0189
      6 C          63.8599   91.2341   12.2129 C.ar    1  UNL1       -0.0011
      7 N          62.7159   87.5396   11.3227 N.ar    1  UNL1       -0.2339
      8 N          61.9847   87.6089   10.0149 N.ar    1  UNL1       -0.1617
      9 C          61.6000   86.2126    9.6245 C.ar    1  UNL1        0.1720
     10 C          62.0934   85.2804   10.6910 C.ar    1  UNL1        0.0443
     11 C          62.7832   86.1006   11.7406 C.ar    1  UNL1        0.0628
     12 C          63.3833   85.4310   12.9412 C.3     1  UNL1        0.0777
     13 C          63.2937   83.9414   13.0922 C.3     1  UNL1        0.1489
     14 O          62.6040   83.1213   12.0426 O.3     1  UNL1       -0.3485
     15 C          62.0038   83.7908   10.8420 C.3     1  UNL1        0.1713
     16 C          60.8529   85.8178    8.3851 C.3     1  UNL1        0.4363
     17 F          60.1057   85.4231    7.1457 F       1  UNL1       -0.1644
     18 F          59.5934   86.3944    8.9606 F       1  UNL1       -0.1644
     19 F          62.1123   85.2413    7.8096 F       1  UNL1       -0.1644
     20 C          64.9755   92.2006   14.3510 C.3     1  UNL1        0.1201
     21 O          66.3776   92.9379   17.2041 O.2     1  UNL1       -0.2749
     22 C          67.0946   92.6189   15.9258 C.2     1  UNL1        0.2259
     23 C          68.5818   92.5828   15.7344 C.3     1  UNL1        0.0870
     24 C          68.8566   92.2215   14.3046 C.3     1  UNL1        0.0311
     25 C          67.5392   92.0344   13.6124 C.3     1  UNL1        0.0942
     26 N          66.4500   92.2800   14.6144 N.am    1  UNL1       -0.2754
@<TRIPOS>BOND
     1    21    22    2
     2    22    23    1
     3    23    24    1
     4    24    25    1
     5    25    26    1
     6    26    20    1
     7    20     1    1
     8     1     2   ar
     9     2     3   ar
    10     3     4   ar
    11     4     7    1
    12     7     8   ar
    13     8     9   ar
    14     9    16    1
    15    16    17    1
    16    16    18    1
    17    16    19    1
    18     9    10   ar
    19    10    11   ar
    20    11    12    1
    21    12    13    1
    22    13    14    1
    23    14    15    1
    24     4     5   ar
    25     5     6   ar
    26    26    22   am
    27     6     1   ar
    28    11     7   ar
    29    15    10    1
@<TRIPOS>MOLECULE
*****
 26 29 0 0 0
SMALL
GASTEIGER

@<TRIPOS>ATOM
      1 C          63.9605   89.6308   13.8791 C.ar    1  UNL1       -0.0022
      2 C          64.4342   88.6248   14.8858 C.ar    1  UNL1       -0.0011
      3 C          64.2477   87.1592   14.6264 C.ar    1  UNL1        0.0189
      4 C          63.5875   86.6996   13.3604 C.ar    1  UNL1        0.0824
      5 C          63.1139   87.7057   12.3536 C.ar    1  UNL1        0.0189
      6 C          63.3004   89.1713   12.6130 C.ar    1  UNL1       -0.0011
      7 N          63.4010   85.2340   13.1010 N.ar    1  UNL1       -0.2339
      8 N          63.2140   84.1711   14.1427 N.ar    1  UNL1       -0.1617
      9 C          63.0662   82.8542   13.4398 C.ar    1  UNL1        0.1720
     10 C          63.1619   83.1033   11.9637 C.ar    1  UNL1        0.0443
     11 C          63.3689   84.5741   11.7543 C.ar    1  UNL1        0.0628
     12 C          63.5013   85.1225   10.3645 C.3     1  UNL1        0.0777
     13 C          63.4267   84.2000    9.1841 C.3     1  UNL1        0.1489
     14 O          63.2198   82.7292    9.3935 O.3     1  UNL1       -0.3485
     15 C          63.0874   82.1808   10.7833 C.3     1  UNL1        0.1713
     16 C          62.8591   81.5221   14.0975 C.3     1  UNL1        0.4363
     17 F          62.6520   80.1899   14.7552 F       1  UNL1       -0.1644
     18 F          64.2045   81.0723   13.6102 F       1  UNL1       -0.1644
     19 F          61.5137   81.9719   14.5849 F       1  UNL1       -0.1644
     20 C          64.1470   91.0964   14.1385 C.3     1  UNL1        0.1201
     21 O          64.5427   92.5890   17.0134 O.2     1  UNL1       -0.2749
     22 C          65.6258   92.2857   16.0211 C.2     1  UNL1        0.2259
     23 C          67.0809   92.6151   16.1759 C.3     1  UNL1        0.0870
     24 C          67.7984   92.1326   14.9501 C.3     1  UNL1        0.0311
     25 C          66.7868   91.5050   14.0377 C.3     1  UNL1        0.0942
     26 N          65.4439   91.5996   14.6996 N.am    1  UNL1       -0.2754
@<TRIPOS>BOND
     1    21    22    2
     2    22    23    1
     3    23    24    1
     4    24    25    1
     5    25    26    1
     6    26    20    1
     7    20     1    1
     8     1     2   ar
     9     2     3   ar
    10     3     4   ar
    11     4     7    1
    12     7     8   ar
    13     8     9   ar
    14     9    16    1
    15    16    17    1
    16    16    18    1
    17    16    19    1
    18     9    10   ar
    19    10    11   ar
    20    11    12    1
    21    12    13    1
    22    13    14    1
    23    14    15    1
    24     4     5   ar
    25     5     6   ar
    26    26    22   am
    27     6     1   ar
    28    11     7   ar
    29    15    10    1
