@<TRIPOS>MOLECULE
*****
 40 43 0 0 0
SMALL
GASTEIGER

@<TRIPOS>ATOM
      1 C          62.7184   85.7340   12.7624 C.3     1  UNL1        0.1695
      2 C          61.9192   86.1937   11.5792 C.3     1  UNL1        0.1271
      3 N          61.8660   87.5589   10.9600 N.am    1  UNL1       -0.2553
      4 C          60.9602   87.7002    9.7727 C.2     1  UNL1        0.2294
      5 O          60.8339   89.0241    9.0790 O.2     1  UNL1       -0.2745
      6 C          62.5988   88.8016   11.3710 C.ar    1  UNL1        0.0676
      7 C          62.2591   89.9585   10.4788 C.ar    1  UNL1        0.0162
      8 C          62.8864   91.2998   10.7184 C.ar    1  UNL1        0.0014
      9 C          63.8534   91.4841   11.8502 C.ar    1  UNL1        0.0014
     10 C          64.1930   90.3272   12.7424 C.ar    1  UNL1        0.0162
     11 C          63.5657   88.9859   12.5028 C.ar    1  UNL1        0.0679
     12 N          64.0388   87.9731   13.5031 N.am    1  UNL1       -0.2517
     13 C          63.6617   86.5259   13.6187 C.2     1  UNL1        0.2493
     14 O          64.3142   85.7707   14.7384 O.2     1  UNL1       -0.2727
     15 C          62.9435   83.2139   12.1719 C.2     1  UNL1        0.2371
     16 O          63.5006   83.5786   10.8278 O.2     1  UNL1       -0.2737
     17 N          62.5524   84.2916   13.1392 N.am    1  UNL1       -0.2959
     18 H          62.1867   84.0523   14.0214 H       1  UNL1        0.1499
     19 C          62.7774   81.7716   12.5488 C.3     1  UNL1        0.1316
     20 C          63.0544   80.6962   11.5402 C.3     1  UNL1        0.0270
     21 C          60.9608   80.8452   14.1586 C.3     1  UNL1        0.0862
     22 N          62.3344   81.4045   13.9340 N.3     1  UNL1       -0.2902
     23 H          62.9956   80.7092   14.2801 H       1  UNL1        0.1237
     24 C          60.1808   86.5174    9.2791 C.3     1  UNL1        0.0856
     25 C          59.9423   86.3369    7.8092 C.3     1  UNL1        0.0091
     26 C          60.7433   85.3304    7.0376 C.3     1  UNL1        0.0005
     27 C          58.9027   87.1627    7.1111 C.3     1  UNL1        0.0005
     28 C          65.0185   88.4738   14.5227 C.3     1  UNL1        0.1278
     29 C          64.7672   89.7726   15.2298 C.ar    1  UNL1        0.0320
     30 C          63.5631   89.9259   16.1110 C.ar    1  UNL1        0.1363
     31 C          63.3117   91.2246   16.8182 C.ar    1  UNL1        0.0366
     32 C          64.2645   92.3700   16.6442 C.ar    1  UNL1        0.0031
     33 C          65.4686   92.2167   15.7629 C.ar    1  UNL1       -0.0001
     34 C          66.4214   93.3621   15.5889 C.ar    1  UNL1       -0.0000
     35 C          67.6255   93.2087   14.7077 C.ar    1  UNL1       -0.0000
     36 C          67.8769   91.9099   14.0005 C.ar    1  UNL1       -0.0000
     37 C          66.9241   90.7646   14.1746 C.ar    1  UNL1       -0.0002
     38 C          65.7200   90.9179   15.0557 C.ar    1  UNL1        0.0006
     39 O          62.6102   88.7806   16.2851 O.3     1  UNL1       -0.4717
     40 C          62.5967   87.5594   17.1561 C.3     1  UNL1        0.2525
@<TRIPOS>BOND
     1    21    22    1
     2    22    19    1
     3    19    20    1
     4    19    15    1
     5    15    16    2
     6    15    17   am
     7     1    17    1
     8     1     2    1
     9     2     3    1
    10     3     4   am
    11     4     5    2
    12     4    24    1
    13    24    25    1
    14    25    26    1
    15    25    27    1
    16     3     6    1
    17     6     7   ar
    18     7     8   ar
    19     8     9   ar
    20     9    10   ar
    21    10    11   ar
    22    11    12    1
    23    12    28    1
    24    28    29    1
    25    29    30   ar
    26    30    39    1
    27    39    40    1
    28    30    31   ar
    29    31    32   ar
    30    32    33   ar
    31    33    34   ar
    32    34    35   ar
    33    35    36   ar
    34    36    37   ar
    35    37    38   ar
    36    12    13   am
    37    13    14    2
    38    13     1    1
    39    11     6   ar
    40    38    29   ar
    41    38    33   ar
    42    22    23    1
    43    17    18    1
@<TRIPOS>MOLECULE
*****
 40 43 0 0 0
SMALL
GASTEIGER

@<TRIPOS>ATOM
      1 C          62.9280   86.1163   11.3348 C.3     1  UNL1        0.1695
      2 C          63.2611   84.9479   12.2146 C.3     1  UNL1        0.1271
      3 N          63.4761   84.9264   13.6989 N.am    1  UNL1       -0.2553
      4 C          63.7987   83.5861   14.2903 C.2     1  UNL1        0.2294
      5 O          64.0322   83.4541   15.7662 O.2     1  UNL1       -0.2745
      6 C          63.4112   86.0677   14.6701 C.ar    1  UNL1        0.0676
      7 C          63.6917   85.6116   16.0712 C.ar    1  UNL1        0.0162
      8 C          63.6762   86.6004   17.1990 C.ar    1  UNL1        0.0014
      9 C          63.3802   88.0453   16.9257 C.ar    1  UNL1        0.0014
     10 C          63.0997   88.5014   15.5245 C.ar    1  UNL1        0.0162
     11 C          63.1152   87.5126   14.3967 C.ar    1  UNL1        0.0679
     12 N          62.8110   88.1729   13.0847 N.am    1  UNL1       -0.2517
     13 C          62.7277   87.5516   11.7219 C.2     1  UNL1        0.2493
     14 O          62.4009   88.4894   10.5979 O.2     1  UNL1       -0.2727
     15 C          61.4218   85.8782    9.2313 C.2     1  UNL1        0.2371
     16 O          60.2215   86.2553   10.0481 O.2     1  UNL1       -0.2737
     17 N          62.7750   85.8087    9.8746 N.am    1  UNL1       -0.2959
     18 H          63.5628   85.5612    9.3385 H       1  UNL1        0.1499
     19 C          61.2688   85.5706    7.7712 C.3     1  UNL1        0.1316
     20 C          62.4218   84.9992    7.0003 C.3     1  UNL1        0.0270
     21 C          59.1598   87.0505    7.4369 C.3     1  UNL1        0.0862
     22 N          59.9630   85.8344    7.0819 N.3     1  UNL1       -0.2902
     23 H          60.1638   85.8952    6.0838 H       1  UNL1        0.1237
     24 C          63.8879   82.3779   13.4059 C.3     1  UNL1        0.0856
     25 C          62.7340   81.4232   13.3218 C.3     1  UNL1        0.0091
     26 C          62.7253   80.3475   12.2764 C.3     1  UNL1        0.0005
     27 C          61.5888   81.5442   14.2831 C.3     1  UNL1        0.0005
     28 C          62.5565   89.6500   13.1431 C.3     1  UNL1        0.1278
     29 C          63.4048   90.5897   12.3383 C.ar    1  UNL1        0.0320
     30 C          62.9357   91.0578   10.9927 C.ar    1  UNL1        0.1363
     31 C          63.7839   91.9975   10.1879 C.ar    1  UNL1        0.0366
     32 C          65.1011   92.4690   10.7288 C.ar    1  UNL1        0.0031
     33 C          65.5701   92.0009   12.0746 C.ar    1  UNL1       -0.0001
     34 C          66.8873   92.4724   12.6155 C.ar    1  UNL1       -0.0000
     35 C          67.3563   92.0043   13.9612 C.ar    1  UNL1       -0.0000
     36 C          66.5081   91.0646   14.7660 C.ar    1  UNL1       -0.0000
     37 C          65.1910   90.5931   14.2249 C.ar    1  UNL1       -0.0002
     38 C          64.7220   91.0612   12.8793 C.ar    1  UNL1        0.0006
     39 O          61.6185   90.5863   10.4517 O.3     1  UNL1       -0.4717
     40 C          60.1945   90.7362   10.8986 C.3     1  UNL1        0.2525
@<TRIPOS>BOND
     1    21    22    1
     2    22    19    1
     3    19    20    1
     4    19    15    1
     5    15    16    2
     6    15    17   am
     7     1    17    1
     8     1     2    1
     9     2     3    1
    10     3     4   am
    11     4     5    2
    12     4    24    1
    13    24    25    1
    14    25    26    1
    15    25    27    1
    16     3     6    1
    17     6     7   ar
    18     7     8   ar
    19     8     9   ar
    20     9    10   ar
    21    10    11   ar
    22    11    12    1
    23    12    28    1
    24    28    29    1
    25    29    30   ar
    26    30    39    1
    27    39    40    1
    28    30    31   ar
    29    31    32   ar
    30    32    33   ar
    31    33    34   ar
    32    34    35   ar
    33    35    36   ar
    34    36    37   ar
    35    37    38   ar
    36    12    13   am
    37    13    14    2
    38    13     1    1
    39    11     6   ar
    40    38    29   ar
    41    38    33   ar
    42    22    23    1
    43    17    18    1
@<TRIPOS>MOLECULE
*****
 40 43 0 0 0
SMALL
GASTEIGER

@<TRIPOS>ATOM
      1 C          62.9159   86.0963   11.6053 C.3     1  UNL1        0.1695
      2 C          62.3885   85.7866   10.2357 C.3     1  UNL1        0.1271
      3 N          61.5182   86.6334    9.3551 N.am    1  UNL1       -0.2553
      4 C          61.1580   86.0355    8.0274 C.2     1  UNL1        0.2294
      5 O          60.2916   86.7999    7.0708 O.2     1  UNL1       -0.2745
      6 C          60.9604   87.9992    9.6266 C.ar    1  UNL1        0.0676
      7 C          60.1345   88.4925    8.4758 C.ar    1  UNL1        0.0162
      8 C          59.4834   89.8421    8.5442 C.ar    1  UNL1        0.0014
      9 C          59.6581   90.6983    9.7633 C.ar    1  UNL1        0.0014
     10 C          60.4840   90.2049   10.9142 C.ar    1  UNL1        0.0162
     11 C          61.1352   88.8554   10.8458 C.ar    1  UNL1        0.0679
     12 N          61.9109   88.5572   12.0946 N.am    1  UNL1       -0.2517
     13 C          62.7034   87.3294   12.4327 C.2     1  UNL1        0.2493
     14 O          63.3717   87.3354   13.7755 O.2     1  UNL1       -0.2727
     15 C          63.2138   84.1760   13.3297 C.2     1  UNL1        0.2371
     16 O          61.8059   84.3836   13.8041 O.2     1  UNL1       -0.2737
     17 N          63.7687   85.0323   12.2303 N.am    1  UNL1       -0.2959
     18 H          64.6927   84.8960   11.9189 H       1  UNL1        0.1499
     19 C          64.0665   83.1119   13.9547 C.3     1  UNL1        0.1316
     20 C          64.7515   83.3724   15.2635 C.3     1  UNL1        0.0270
     21 C          63.0810   80.8316   13.1939 C.3     1  UNL1        0.0862
     22 N          64.2344   81.7875   13.2708 N.3     1  UNL1       -0.2902
     23 H          64.5173   81.9855   12.3110 H       1  UNL1        0.1237
     24 C          61.6643   84.6731    7.6563 C.3     1  UNL1        0.0856
     25 C          61.9752   84.3530    6.2242 C.3     1  UNL1        0.0091
     26 C          63.3296   84.6688    5.6622 C.3     1  UNL1        0.0005
     27 C          60.9318   83.7172    5.3542 C.3     1  UNL1        0.0005
     28 C          61.8915   89.6287   13.1441 C.3     1  UNL1        0.1278
     29 C          63.1725   90.2790   13.5759 C.ar    1  UNL1        0.0320
     30 C          63.6289   90.1640   15.0001 C.ar    1  UNL1        0.1363
     31 C          64.9098   90.8142   15.4320 C.ar    1  UNL1        0.0366
     32 C          65.7342   91.5794   14.4397 C.ar    1  UNL1        0.0031
     33 C          65.2778   91.6944   13.0154 C.ar    1  UNL1       -0.0001
     34 C          66.1022   92.4596   12.0231 C.ar    1  UNL1       -0.0000
     35 C          65.6457   92.5745   10.5989 C.ar    1  UNL1       -0.0000
     36 C          64.3647   91.9243   10.1670 C.ar    1  UNL1       -0.0000
     37 C          63.5404   91.1591   11.1594 C.ar    1  UNL1       -0.0002
     38 C          63.9968   91.0442   12.5835 C.ar    1  UNL1        0.0006
     39 O          62.8045   89.3988   15.9926 O.3     1  UNL1       -0.4717
     40 C          63.1156   88.3444   17.0131 C.3     1  UNL1        0.2525
@<TRIPOS>BOND
     1    21    22    1
     2    22    19    1
     3    19    20    1
     4    19    15    1
     5    15    16    2
     6    15    17   am
     7     1    17    1
     8     1     2    1
     9     2     3    1
    10     3     4   am
    11     4     5    2
    12     4    24    1
    13    24    25    1
    14    25    26    1
    15    25    27    1
    16     3     6    1
    17     6     7   ar
    18     7     8   ar
    19     8     9   ar
    20     9    10   ar
    21    10    11   ar
    22    11    12    1
    23    12    28    1
    24    28    29    1
    25    29    30   ar
    26    30    39    1
    27    39    40    1
    28    30    31   ar
    29    31    32   ar
    30    32    33   ar
    31    33    34   ar
    32    34    35   ar
    33    35    36   ar
    34    36    37   ar
    35    37    38   ar
    36    12    13   am
    37    13    14    2
    38    13     1    1
    39    11     6   ar
    40    38    29   ar
    41    38    33   ar
    42    22    23    1
    43    17    18    1
@<TRIPOS>MOLECULE
*****
 40 43 0 0 0
SMALL
GASTEIGER

@<TRIPOS>ATOM
      1 C          62.8333   88.6266   13.2406 C.3     1  UNL1        0.1695
      2 C          61.9186   89.2358   12.2197 C.3     1  UNL1        0.1271
      3 N          61.4055   88.6329   10.9456 N.am    1  UNL1       -0.2553
      4 C          60.4975   89.5065   10.1318 C.2     1  UNL1        0.2294
      5 O          59.9288   88.9995    8.8395 O.2     1  UNL1       -0.2745
      6 C          61.6802   87.2720   10.3778 C.ar    1  UNL1        0.0676
      7 C          60.9656   87.0673    9.0749 C.ar    1  UNL1        0.0162
      8 C          61.1068   85.7685    8.3381 C.ar    1  UNL1        0.0014
      9 C          61.9626   84.6743    8.9041 C.ar    1  UNL1        0.0014
     10 C          62.6772   84.8789   10.2069 C.ar    1  UNL1        0.0162
     11 C          62.5360   86.1778   10.9438 C.ar    1  UNL1        0.0679
     12 N          63.3284   86.1743   12.2174 N.am    1  UNL1       -0.2517
     13 C          63.4607   87.2641   13.2396 C.2     1  UNL1        0.2493
     14 O          64.3362   86.9498   14.4163 O.2     1  UNL1       -0.2727
     15 C          64.1086   90.6489   14.2572 C.2     1  UNL1        0.2371
     16 O          64.7219   90.9351   12.9185 O.2     1  UNL1       -0.2737
     17 N          63.1643   89.4946   14.4182 N.am    1  UNL1       -0.2959
     18 H          62.7618   89.3068   15.2968 H       1  UNL1        0.1499
     19 C          64.4397   91.5170   15.4349 C.3     1  UNL1        0.1316
     20 C          63.8194   91.2362   16.7715 C.3     1  UNL1        0.0270
     21 C          66.6833   92.6802   16.0372 C.3     1  UNL1        0.0862
     22 N          65.3909   92.6658   15.2759 N.3     1  UNL1       -0.2902
     23 H          65.6318   92.7139   14.2860 H       1  UNL1        0.1237
     24 C          60.1580   90.8871   10.6101 C.3     1  UNL1        0.0856
     25 C          59.0371   91.0882   11.5863 C.3     1  UNL1        0.0091
     26 C          58.3766   92.4298   11.7038 C.3     1  UNL1        0.0005
     27 C          58.5767   89.9477   12.4450 C.3     1  UNL1        0.0005
     28 C          64.0890   84.9144   12.5071 C.3     1  UNL1        0.1278
     29 C          63.3749   83.7181   13.0632 C.ar    1  UNL1        0.0320
     30 C          62.7676   83.7773   14.4335 C.ar    1  UNL1        0.1363
     31 C          62.0535   82.5812   14.9896 C.ar    1  UNL1        0.0366
     32 C          61.9468   81.3258   14.1755 C.ar    1  UNL1        0.0031
     33 C          62.5542   81.2667   12.8052 C.ar    1  UNL1       -0.0001
     34 C          62.4475   80.0114   11.9911 C.ar    1  UNL1       -0.0000
     35 C          63.0548   79.9523   10.6208 C.ar    1  UNL1       -0.0000
     36 C          63.7689   81.1485   10.0647 C.ar    1  UNL1       -0.0000
     37 C          63.8756   82.4037   10.8789 C.ar    1  UNL1       -0.0002
     38 C          63.2683   82.4629   12.2490 C.ar    1  UNL1        0.0006
     39 O          62.8743   85.0326   15.2477 O.3     1  UNL1       -0.4717
     40 C          62.4433   85.4165   16.6322 C.3     1  UNL1        0.2525
@<TRIPOS>BOND
     1    21    22    1
     2    22    19    1
     3    19    20    1
     4    19    15    1
     5    15    16    2
     6    15    17   am
     7     1    17    1
     8     1     2    1
     9     2     3    1
    10     3     4   am
    11     4     5    2
    12     4    24    1
    13    24    25    1
    14    25    26    1
    15    25    27    1
    16     3     6    1
    17     6     7   ar
    18     7     8   ar
    19     8     9   ar
    20     9    10   ar
    21    10    11   ar
    22    11    12    1
    23    12    28    1
    24    28    29    1
    25    29    30   ar
    26    30    39    1
    27    39    40    1
    28    30    31   ar
    29    31    32   ar
    30    32    33   ar
    31    33    34   ar
    32    34    35   ar
    33    35    36   ar
    34    36    37   ar
    35    37    38   ar
    36    12    13   am
    37    13    14    2
    38    13     1    1
    39    11     6   ar
    40    38    29   ar
    41    38    33   ar
    42    22    23    1
    43    17    18    1
@<TRIPOS>MOLECULE
*****
 40 43 0 0 0
SMALL
GASTEIGER

@<TRIPOS>ATOM
      1 C          61.3155   87.2213   11.1206 C.3     1  UNL1        0.1695
      2 C          61.8778   85.8554   11.3819 C.3     1  UNL1        0.1271
      3 N          62.9257   85.4499   12.3756 N.am    1  UNL1       -0.2553
      4 C          63.2755   83.9914   12.3939 C.2     1  UNL1        0.2294
      5 O          64.3118   83.4805   13.3506 O.2     1  UNL1       -0.2745
      6 C          63.6701   86.3100   13.3535 C.ar    1  UNL1        0.0676
      7 C          64.6371   85.5029   14.1680 C.ar    1  UNL1        0.0162
      8 C          65.4844   86.1738   15.2081 C.ar    1  UNL1        0.0014
      9 C          65.3646   87.6519   15.4337 C.ar    1  UNL1        0.0014
     10 C          64.3976   88.4590   14.6192 C.ar    1  UNL1        0.0162
     11 C          63.5503   87.7881   13.5791 C.ar    1  UNL1        0.0679
     12 N          62.6567   88.7711   12.8826 N.am    1  UNL1       -0.2517
     13 C          61.6621   88.5189   11.7885 C.2     1  UNL1        0.2493
     14 O          60.9154   89.7235   11.2973 O.2     1  UNL1       -0.2727
     15 C          60.5590   86.7733    8.6758 C.2     1  UNL1        0.2371
     16 O          61.8976   86.1681    8.3725 O.2     1  UNL1       -0.2737
     17 N          60.2679   87.2999   10.0499 N.am    1  UNL1       -0.2959
     18 H          59.3894   87.6971   10.2489 H       1  UNL1        0.1499
     19 C          59.5115   86.8519    7.6051 C.3     1  UNL1        0.1316
     20 C          59.2665   85.6752    6.7076 C.3     1  UNL1        0.0270
     21 C          59.3506   89.3340    6.8544 C.3     1  UNL1        0.0862
     22 N          58.7089   88.1072    7.4317 N.3     1  UNL1       -0.2902
     23 H          57.9230   87.8728    6.8252 H       1  UNL1        0.1237
     24 C          62.5890   83.0436   11.4555 C.3     1  UNL1        0.0856
     25 C          62.8118   81.5660   11.5861 C.3     1  UNL1        0.0091
     26 C          62.5482   80.8805   12.8940 C.3     1  UNL1        0.0005
     27 C          63.2980   80.7739   10.4087 C.3     1  UNL1        0.0005
     28 C          62.7731   90.1946   13.3409 C.3     1  UNL1        0.1278
     29 C          63.9527   91.0225   12.9247 C.ar    1  UNL1        0.0320
     30 C          64.2540   91.2200   11.4686 C.ar    1  UNL1        0.1363
     31 C          65.4336   92.0478   11.0524 C.ar    1  UNL1        0.0366
     32 C          66.3119   92.6782   12.0923 C.ar    1  UNL1        0.0031
     33 C          66.0105   92.4807   13.5484 C.ar    1  UNL1       -0.0001
     34 C          66.8888   93.1111   14.5883 C.ar    1  UNL1       -0.0000
     35 C          66.5873   92.9136   16.0443 C.ar    1  UNL1       -0.0000
     36 C          65.4077   92.0857   16.4606 C.ar    1  UNL1       -0.0000
     37 C          64.5296   91.4554   15.4206 C.ar    1  UNL1       -0.0002
     38 C          64.8309   91.6529   13.9646 C.ar    1  UNL1        0.0006
     39 O          63.3759   90.5896   10.4287 O.3     1  UNL1       -0.4717
     40 C          62.5381   91.1277    9.3069 C.3     1  UNL1        0.2525
@<TRIPOS>BOND
     1    21    22    1
     2    22    19    1
     3    19    20    1
     4    19    15    1
     5    15    16    2
     6    15    17   am
     7     1    17    1
     8     1     2    1
     9     2     3    1
    10     3     4   am
    11     4     5    2
    12     4    24    1
    13    24    25    1
    14    25    26    1
    15    25    27    1
    16     3     6    1
    17     6     7   ar
    18     7     8   ar
    19     8     9   ar
    20     9    10   ar
    21    10    11   ar
    22    11    12    1
    23    12    28    1
    24    28    29    1
    25    29    30   ar
    26    30    39    1
    27    39    40    1
    28    30    31   ar
    29    31    32   ar
    30    32    33   ar
    31    33    34   ar
    32    34    35   ar
    33    35    36   ar
    34    36    37   ar
    35    37    38   ar
    36    12    13   am
    37    13    14    2
    38    13     1    1
    39    11     6   ar
    40    38    29   ar
    41    38    33   ar
    42    22    23    1
    43    17    18    1
@<TRIPOS>MOLECULE
*****
 40 43 0 0 0
SMALL
GASTEIGER

@<TRIPOS>ATOM
      1 C          62.0188   89.2196    9.6010 C.3     1  UNL1        0.1695
      2 C          62.8319   90.2582   10.3153 C.3     1  UNL1        0.1271
      3 N          63.5398   90.1482   11.6332 N.am    1  UNL1       -0.2553
      4 C          64.2753   91.3763   12.0813 C.2     1  UNL1        0.2294
      5 O          65.0169   91.3725   13.3853 O.2     1  UNL1       -0.2745
      6 C          63.6095   88.9726   12.5622 C.ar    1  UNL1        0.0676
      7 C          64.4261   89.2849   13.7810 C.ar    1  UNL1        0.0162
      8 C          64.6216   88.2412   14.8404 C.ar    1  UNL1        0.0014
      9 C          64.0006   86.8852   14.6810 C.ar    1  UNL1        0.0014
     10 C          63.1840   86.5728   13.4622 C.ar    1  UNL1        0.0162
     11 C          62.9884   87.6165   12.4028 C.ar    1  UNL1        0.0679
     12 N          62.1443   87.1013   11.2750 N.am    1  UNL1       -0.2517
     13 C          61.7127   87.8146   10.0281 C.2     1  UNL1        0.2493
     14 O          60.8628   87.0177    9.0833 O.2     1  UNL1       -0.2727
     15 C          59.9682   89.4631    8.0244 C.2     1  UNL1        0.2371
     16 O          59.0863   88.8620    9.0785 O.2     1  UNL1       -0.2737
     17 N          61.4344   89.6419    8.2856 N.am    1  UNL1       -0.2959
     18 H          62.0131   90.0364    7.5938 H       1  UNL1        0.1499
     19 C          59.3838   89.8854    6.7090 C.3     1  UNL1        0.1316
     20 C          57.9529   89.5697    6.3881 C.3     1  UNL1        0.0270
     21 C          59.5980   91.6070    4.7750 C.3     1  UNL1        0.0862
     22 N          60.2302   90.6233    5.7146 N.3     1  UNL1       -0.2902
     23 H          60.9325   91.1355    6.2483 H       1  UNL1        0.1237
     24 C          64.2694   92.6082   11.2255 C.3     1  UNL1        0.0856
     25 C          65.5642   93.2613   10.8420 C.3     1  UNL1        0.0091
     26 C          66.7674   92.4191   10.5373 C.3     1  UNL1        0.0005
     27 C          65.6556   94.7564   10.7631 C.3     1  UNL1        0.0005
     28 C          61.6689   85.6852   11.4123 C.3     1  UNL1        0.1278
     29 C          62.6360   84.5502   11.2497 C.ar    1  UNL1        0.0320
     30 C          63.3402   84.3466    9.9411 C.ar    1  UNL1        0.1363
     31 C          64.3074   83.2116    9.7785 C.ar    1  UNL1        0.0366
     32 C          64.5702   82.2802   10.9245 C.ar    1  UNL1        0.0031
     33 C          63.8659   82.4838   12.2332 C.ar    1  UNL1       -0.0001
     34 C          64.1288   81.5524   13.3793 C.ar    1  UNL1       -0.0000
     35 C          63.4245   81.7561   14.6879 C.ar    1  UNL1       -0.0000
     36 C          62.4573   82.8911   14.8505 C.ar    1  UNL1       -0.0000
     37 C          62.1946   83.8224   13.7044 C.ar    1  UNL1       -0.0002
     38 C          62.8988   83.6188   12.3958 C.ar    1  UNL1        0.0006
     39 O          63.0775   85.2779    8.7950 O.3     1  UNL1       -0.4717
     40 C          62.7596   85.0793    7.3426 C.3     1  UNL1        0.2525
@<TRIPOS>BOND
     1    21    22    1
     2    22    19    1
     3    19    20    1
     4    19    15    1
     5    15    16    2
     6    15    17   am
     7     1    17    1
     8     1     2    1
     9     2     3    1
    10     3     4   am
    11     4     5    2
    12     4    24    1
    13    24    25    1
    14    25    26    1
    15    25    27    1
    16     3     6    1
    17     6     7   ar
    18     7     8   ar
    19     8     9   ar
    20     9    10   ar
    21    10    11   ar
    22    11    12    1
    23    12    28    1
    24    28    29    1
    25    29    30   ar
    26    30    39    1
    27    39    40    1
    28    30    31   ar
    29    31    32   ar
    30    32    33   ar
    31    33    34   ar
    32    34    35   ar
    33    35    36   ar
    34    36    37   ar
    35    37    38   ar
    36    12    13   am
    37    13    14    2
    38    13     1    1
    39    11     6   ar
    40    38    29   ar
    41    38    33   ar
    42    22    23    1
    43    17    18    1
@<TRIPOS>MOLECULE
*****
 40 43 0 0 0
SMALL
GASTEIGER

@<TRIPOS>ATOM
      1 C          63.9035   90.6569   11.5463 C.3     1  UNL1        0.1695
      2 C          64.4008   92.0355   11.2262 C.3     1  UNL1        0.1271
      3 N          65.3702   92.8822   11.9965 N.am    1  UNL1       -0.2553
      4 C          65.6674   94.2297   11.4084 C.2     1  UNL1        0.2294
      5 O          66.6239   95.1555   12.1000 O.2     1  UNL1       -0.2745
      6 C          66.0818   92.5596   13.2770 C.ar    1  UNL1        0.0676
      7 C          66.9677   93.6894   13.7112 C.ar    1  UNL1        0.0162
      8 C          67.7715   93.5702   14.9720 C.ar    1  UNL1        0.0014
      9 C          67.6894   92.3211   15.7986 C.ar    1  UNL1        0.0014
     10 C          66.8034   91.1913   15.3643 C.ar    1  UNL1        0.0162
     11 C          65.9996   91.3106   14.1035 C.ar    1  UNL1        0.0679
     12 N          65.1856   90.0757   13.8537 N.am    1  UNL1       -0.2517
     13 C          64.2527   89.7847   12.7157 C.2     1  UNL1        0.2493
     14 O          63.5803   88.4444   12.7517 O.2     1  UNL1       -0.2727
     15 C          61.5386   89.7233   11.0118 C.2     1  UNL1        0.2371
     16 O          61.1249   89.9566   12.4347 O.2     1  UNL1       -0.2737
     17 N          62.9279   90.0735   10.5677 N.am    1  UNL1       -0.2959
     18 H          63.1994   89.9204    9.6338 H       1  UNL1        0.1499
     19 C          60.5630   89.1398   10.0332 C.3     1  UNL1        0.1316
     20 C          59.7828   87.9106   10.3943 C.3     1  UNL1        0.0270
     21 C          59.6136   89.0641    7.6160 C.3     1  UNL1        0.0862
     22 N          60.3676   89.7856    8.6935 N.3     1  UNL1       -0.2902
     23 H          59.8764   90.6641    8.8589 H       1  UNL1        0.1237
     24 C          65.0081   94.6516   10.1288 C.3     1  UNL1        0.0856
     25 C          65.7436   95.5295    9.1601 C.3     1  UNL1        0.0091
     26 C          65.1658   96.8550    8.7614 C.3     1  UNL1        0.0005
     27 C          67.0568   95.0817    8.5901 C.3     1  UNL1        0.0005
     28 C          65.3226   88.9878   14.8773 C.3     1  UNL1        0.1278
     29 C          64.1004   88.4168   15.5333 C.ar    1  UNL1        0.0320
     30 C          63.0927   89.3304   16.1657 C.ar    1  UNL1        0.1363
     31 C          61.8705   88.7595   16.8217 C.ar    1  UNL1        0.0366
     32 C          61.6560   87.2751   16.8452 C.ar    1  UNL1        0.0031
     33 C          62.6638   86.3616   16.2128 C.ar    1  UNL1       -0.0001
     34 C          62.4493   84.8772   16.2363 C.ar    1  UNL1       -0.0000
     35 C          63.4570   83.9637   15.6039 C.ar    1  UNL1       -0.0000
     36 C          64.6792   84.5346   14.9479 C.ar    1  UNL1       -0.0000
     37 C          64.8936   86.0190   14.9244 C.ar    1  UNL1       -0.0002
     38 C          63.8860   86.9324   15.5568 C.ar    1  UNL1        0.0006
     39 O          63.3071   90.8148   16.1422 O.3     1  UNL1       -0.4717
     40 C          64.0533   91.7740   17.0214 C.3     1  UNL1        0.2525
@<TRIPOS>BOND
     1    21    22    1
     2    22    19    1
     3    19    20    1
     4    19    15    1
     5    15    16    2
     6    15    17   am
     7     1    17    1
     8     1     2    1
     9     2     3    1
    10     3     4   am
    11     4     5    2
    12     4    24    1
    13    24    25    1
    14    25    26    1
    15    25    27    1
    16     3     6    1
    17     6     7   ar
    18     7     8   ar
    19     8     9   ar
    20     9    10   ar
    21    10    11   ar
    22    11    12    1
    23    12    28    1
    24    28    29    1
    25    29    30   ar
    26    30    39    1
    27    39    40    1
    28    30    31   ar
    29    31    32   ar
    30    32    33   ar
    31    33    34   ar
    32    34    35   ar
    33    35    36   ar
    34    36    37   ar
    35    37    38   ar
    36    12    13   am
    37    13    14    2
    38    13     1    1
    39    11     6   ar
    40    38    29   ar
    41    38    33   ar
    42    22    23    1
    43    17    18    1
@<TRIPOS>MOLECULE
*****
 40 43 0 0 0
SMALL
GASTEIGER

@<TRIPOS>ATOM
      1 C          62.0997   88.7980   10.4877 C.3     1  UNL1        0.1695
      2 C          62.2582   87.3273   10.7368 C.3     1  UNL1        0.1271
      3 N          62.8692   86.6400   11.9218 N.am    1  UNL1       -0.2553
      4 C          62.8780   85.1409   11.8716 C.2     1  UNL1        0.2294
      5 O          63.4661   84.3558   13.0064 O.2     1  UNL1       -0.2745
      6 C          63.4727   87.2535   13.1504 C.ar    1  UNL1        0.0676
      7 C          63.9727   86.2039   14.0981 C.ar    1  UNL1        0.0162
      8 C          64.6142   86.6066   15.3928 C.ar    1  UNL1        0.0014
      9 C          64.7556   88.0591   15.7398 C.ar    1  UNL1        0.0014
     10 C          64.2556   89.1088   14.7921 C.ar    1  UNL1        0.0162
     11 C          63.6141   88.7060   13.4974 C.ar    1  UNL1        0.0679
     12 N          63.1870   89.9036   12.7015 N.am    1  UNL1       -0.2517
     13 C          62.5130   89.9446   11.3621 C.2     1  UNL1        0.2493
     14 O          62.2127   91.3129   10.8262 O.2     1  UNL1       -0.2727
     15 C          60.1635   88.5014    8.7809 C.2     1  UNL1        0.2371
     16 O          59.5453   87.4579    9.6635 O.2     1  UNL1       -0.2737
     17 N          61.4406   89.1715    9.1930 N.am    1  UNL1       -0.2959
     18 H          61.8464   89.8564    8.6138 H       1  UNL1        0.1499
     19 C          59.5044   88.8749    7.4863 C.3     1  UNL1        0.1316
     20 C          58.5195   87.9401    6.8490 C.3     1  UNL1        0.0270
     21 C          59.0448   90.6388    5.6350 C.3     1  UNL1        0.0862
     22 N          59.8303   90.1832    6.8289 N.3     1  UNL1       -0.2902
     23 H          59.7271   90.9049    7.5422 H       1  UNL1        0.1237
     24 C          62.2987   84.4267   10.6864 C.3     1  UNL1        0.0856
     25 C          63.1908   83.9986    9.5591 C.3     1  UNL1        0.0091
     26 C          63.0758   84.6616    8.2185 C.3     1  UNL1        0.0005
     27 C          64.1977   82.9074    9.7724 C.3     1  UNL1        0.0005
     28 C          63.4716   91.2365   13.3279 C.3     1  UNL1        0.1278
     29 C          64.8893   91.6776   13.5415 C.ar    1  UNL1        0.0320
     30 C          65.4460   91.7656   14.9315 C.ar    1  UNL1        0.1363
     31 C          66.8637   92.2067   15.1452 C.ar    1  UNL1        0.0366
     32 C          67.7246   92.5598   13.9687 C.ar    1  UNL1        0.0031
     33 C          67.1679   92.4717   12.5785 C.ar    1  UNL1       -0.0001
     34 C          68.0289   92.8247   11.4020 C.ar    1  UNL1       -0.0000
     35 C          67.4721   92.7366   10.0120 C.ar    1  UNL1       -0.0000
     36 C          66.0544   92.2955    9.7984 C.ar    1  UNL1       -0.0000
     37 C          65.1935   91.9425   10.9749 C.ar    1  UNL1       -0.0002
     38 C          65.7502   92.0306   12.3649 C.ar    1  UNL1        0.0006
     39 O          64.5851   91.4126   16.1081 O.3     1  UNL1       -0.4717
     40 C          63.9733   92.2034   17.2263 C.3     1  UNL1        0.2525
@<TRIPOS>BOND
     1    21    22    1
     2    22    19    1
     3    19    20    1
     4    19    15    1
     5    15    16    2
     6    15    17   am
     7     1    17    1
     8     1     2    1
     9     2     3    1
    10     3     4   am
    11     4     5    2
    12     4    24    1
    13    24    25    1
    14    25    26    1
    15    25    27    1
    16     3     6    1
    17     6     7   ar
    18     7     8   ar
    19     8     9   ar
    20     9    10   ar
    21    10    11   ar
    22    11    12    1
    23    12    28    1
    24    28    29    1
    25    29    30   ar
    26    30    39    1
    27    39    40    1
    28    30    31   ar
    29    31    32   ar
    30    32    33   ar
    31    33    34   ar
    32    34    35   ar
    33    35    36   ar
    34    36    37   ar
    35    37    38   ar
    36    12    13   am
    37    13    14    2
    38    13     1    1
    39    11     6   ar
    40    38    29   ar
    41    38    33   ar
    42    22    23    1
    43    17    18    1
