@<TRIPOS>MOLECULE
*****
 32 34 0 0 0
SMALL
GASTEIGER

@<TRIPOS>ATOM
      1 N          65.1881   89.7845   14.5228 N.am    1  UNL1       -0.2946
      2 C          63.8801   89.0595   14.6391 C.2     1  UNL1        0.2618
      3 O          62.5972   89.8335   14.7099 O.2     1  UNL1       -0.2686
      4 H          66.0301   89.2765   14.4763 H       1  UNL1        0.1501
      5 C          63.8551   87.5604   14.6848 C.ar    1  UNL1        0.1107
      6 C          64.0861   86.7113   15.8996 C.ar    1  UNL1        0.0231
      7 C          63.9684   85.2733   15.4892 C.ar    1  UNL1        0.0186
      8 C          63.6647   85.2337   14.0208 C.ar    1  UNL1        0.0569
      9 N          63.5946   86.6472   13.5237 N.ar    1  UNL1       -0.3496
     10 H          63.4101   86.9265   12.5978 H       1  UNL1        0.1661
     11 C          63.4658   83.9976   13.1946 C.ar    1  UNL1        0.0201
     12 C          62.5728   82.8993   13.6909 C.ar    1  UNL1        0.0321
     13 C          62.3741   81.6633   12.8647 C.ar    1  UNL1        0.1528
     14 F          61.4810   80.5650   13.3610 F       1  UNL1       -0.2032
     15 C          63.0683   81.5255   11.5421 C.ar    1  UNL1        0.1124
     16 CL         62.8694   80.2894   10.7159 Cl      1  UNL1       -0.0775
     17 C          63.9613   82.6238   11.0458 C.ar    1  UNL1        0.1528
     18 F          64.6555   82.4860    9.7233 F       1  UNL1       -0.2032
     19 C          64.1600   83.8598   11.8721 C.ar    1  UNL1        0.0321
     20 C          65.2132   91.2836   14.4771 C.3     1  UNL1        0.1341
     21 C          65.3164   91.9922   13.1591 C.ar    1  UNL1        0.1072
     22 N          64.5455   91.6590   11.9162 N.ar    1  UNL1       -0.2397
     23 C          64.9614   92.6193   10.8415 C.ar    1  UNL1        0.1037
     24 C          65.9892   93.5460   11.4202 C.ar    1  UNL1        0.0568
     25 S          66.2086   93.1584   12.8525 S.2     1  UNL1       -0.0710
     26 C          66.6768   94.6639   10.6940 C.3     1  UNL1        0.1717
     27 O          67.8976   94.3833    9.8688 O.3     1  UNL1       -0.3767
     28 H          68.6209   94.0971   10.4484 H       1  UNL1        0.2109
     29 N          63.8665   92.0835   16.5499 N.3     1  UNL1       -0.3194
     30 C          65.1350   92.0741   15.7496 C.3     1  UNL1        0.0917
     31 H          63.9906   92.6674   17.3771 H       1  UNL1        0.1189
     32 H          63.6384   91.1317   16.8368 H       1  UNL1        0.1189
@<TRIPOS>BOND
     1    29    30    1
     2    30    20    1
     3    20     1    1
     4     1     2   am
     5     2     3    2
     6     2     5    1
     7     5     6   ar
     8     6     7   ar
     9     7     8   ar
    10     8    11    1
    11    11    12   ar
    12    12    13   ar
    13    13    14    1
    14    13    15   ar
    15    15    16    1
    16    15    17   ar
    17    17    18    1
    18    17    19   ar
    19     8     9   ar
    20    20    21    1
    21    21    22   ar
    22    22    23   ar
    23    23    24   ar
    24    24    26    1
    25    26    27    1
    26    24    25   ar
    27     9     5   ar
    28    25    21   ar
    29    19    11   ar
    30    29    31    1
    31    29    32    1
    32     1     4    1
    33     9    10    1
    34    27    28    1
@<TRIPOS>MOLECULE
*****
 32 34 0 0 0
SMALL
GASTEIGER

@<TRIPOS>ATOM
      1 N          65.3904   90.0659   14.6488 N.am    1  UNL1       -0.2946
      2 C          64.0872   89.6406   15.2578 C.2     1  UNL1        0.2618
      3 O          63.0773   90.6724   15.6646 O.2     1  UNL1       -0.2686
      4 H          66.0532   89.3887   14.3818 H       1  UNL1        0.1501
      5 C          63.7940   88.1836   15.4599 C.ar    1  UNL1        0.1107
      6 C          63.4569   87.5247   16.7647 C.ar    1  UNL1        0.0231
      7 C          63.2408   86.0635   16.5040 C.ar    1  UNL1        0.0186
      8 C          63.4444   85.8191   15.0381 C.ar    1  UNL1        0.0569
      9 N          63.7863   87.1294   14.3929 N.ar    1  UNL1       -0.3496
     10 H          63.9728   87.2724   13.4368 H       1  UNL1        0.1661
     11 C          63.3268   84.4966   14.3400 C.ar    1  UNL1        0.0201
     12 C          64.1803   84.2024   13.1422 C.ar    1  UNL1        0.0321
     13 C          64.0627   82.8799   12.4441 C.ar    1  UNL1        0.1528
     14 F          64.9162   82.5856   11.2462 F       1  UNL1       -0.2032
     15 C          63.0915   81.8518   12.9439 C.ar    1  UNL1        0.1124
     16 CL         62.9739   80.5293   12.2458 Cl      1  UNL1       -0.0775
     17 C          62.2380   82.1461   14.1417 C.ar    1  UNL1        0.1528
     18 F          61.2669   81.1179   14.6415 F       1  UNL1       -0.2032
     19 C          62.3557   83.4685   14.8398 C.ar    1  UNL1        0.0321
     20 C          65.6837   91.5230   14.4466 C.3     1  UNL1        0.1341
     21 C          65.5857   92.1246   13.0761 C.ar    1  UNL1        0.1072
     22 N          64.6167   91.7226   12.0039 N.ar    1  UNL1       -0.2397
     23 C          64.8716   92.5835   10.8023 C.ar    1  UNL1        0.1037
     24 C          65.9981   93.5175   11.1317 C.ar    1  UNL1        0.0568
     25 S          66.4394   93.2339   12.5370 S.2     1  UNL1       -0.0710
     26 C          66.5809   94.5533   10.2166 C.3     1  UNL1        0.1717
     27 O          68.0031   94.4317    9.7554 O.3     1  UNL1       -0.3767
     28 H          68.5988   94.5320   10.5143 H       1  UNL1        0.2109
     29 N          65.0418   92.7933   16.6202 N.3     1  UNL1       -0.3194
     30 C          66.0750   92.3784   15.6150 C.3     1  UNL1        0.0917
     31 H          65.4798   93.3671   17.3409 H       1  UNL1        0.1189
     32 H          64.6319   91.9634   17.0487 H       1  UNL1        0.1189
@<TRIPOS>BOND
     1    29    30    1
     2    30    20    1
     3    20     1    1
     4     1     2   am
     5     2     3    2
     6     2     5    1
     7     5     6   ar
     8     6     7   ar
     9     7     8   ar
    10     8    11    1
    11    11    12   ar
    12    12    13   ar
    13    13    14    1
    14    13    15   ar
    15    15    16    1
    16    15    17   ar
    17    17    18    1
    18    17    19   ar
    19     8     9   ar
    20    20    21    1
    21    21    22   ar
    22    22    23   ar
    23    23    24   ar
    24    24    26    1
    25    26    27    1
    26    24    25   ar
    27     9     5   ar
    28    25    21   ar
    29    19    11   ar
    30    29    31    1
    31    29    32    1
    32     1     4    1
    33     9    10    1
    34    27    28    1
@<TRIPOS>MOLECULE
*****
 32 34 0 0 0
SMALL
GASTEIGER

@<TRIPOS>ATOM
      1 N          64.5898   88.1047   15.1498 N.am    1  UNL1       -0.2946
      2 C          63.9345   89.4401   14.9570 C.2     1  UNL1        0.2618
      3 O          62.4637   89.5968   15.2060 O.2     1  UNL1       -0.2686
      4 H          65.5552   88.0018   14.9864 H       1  UNL1        0.1501
      5 C          64.7501   90.6189   14.5150 C.ar    1  UNL1        0.1107
      6 C          65.4841   91.5698   15.4134 C.ar    1  UNL1        0.0231
      7 C          66.1625   92.5924   14.5508 C.ar    1  UNL1        0.0186
      8 C          65.8478   92.2734   13.1193 C.ar    1  UNL1        0.0569
      9 N          64.9749   91.0538   13.0972 N.ar    1  UNL1       -0.3496
     10 H          64.6131   90.6156   12.2932 H       1  UNL1        0.1661
     11 C          66.3227   93.0396   11.9202 C.ar    1  UNL1        0.0201
     12 C          67.0734   92.3354   10.8292 C.ar    1  UNL1        0.0321
     13 C          67.5482   93.1016    9.6303 C.ar    1  UNL1        0.1528
     14 F          68.2989   92.3973    8.5392 F       1  UNL1       -0.2032
     15 C          67.2723   94.5720    9.5224 C.ar    1  UNL1        0.1124
     16 CL         67.7472   95.3382    8.3234 Cl      1  UNL1       -0.0775
     17 C          66.5216   95.2763   10.6134 C.ar    1  UNL1        0.1528
     18 F          66.2457   96.7467   10.5056 F       1  UNL1       -0.2032
     19 C          66.0468   94.5101   11.8124 C.ar    1  UNL1        0.0321
     20 C          63.7742   86.9259   15.5917 C.3     1  UNL1        0.1341
     21 C          63.6264   85.7360   14.6905 C.ar    1  UNL1        0.1072
     22 N          63.3314   85.7746   13.2204 N.ar    1  UNL1       -0.2397
     23 C          63.2704   84.3609   12.7225 C.ar    1  UNL1        0.1037
     24 C          63.5277   83.4486   13.8850 C.ar    1  UNL1        0.0568
     25 S          63.7477   84.2984   15.1013 S.2     1  UNL1       -0.0710
     26 C          63.5594   81.9496   13.8393 C.3     1  UNL1        0.1717
     27 O          62.5663   81.1539   14.6332 O.3     1  UNL1       -0.3767
     28 H          62.7254   81.2907   15.5803 H       1  UNL1        0.2109
     29 N          61.7455   86.3286   17.1009 N.3     1  UNL1       -0.3194
     30 C          63.1064   86.9371   16.9349 C.3     1  UNL1        0.0917
     31 H          61.4464   86.4242   18.0714 H       1  UNL1        0.1189
     32 H          61.7825   85.3400   16.8523 H       1  UNL1        0.1189
@<TRIPOS>BOND
     1    29    30    1
     2    30    20    1
     3    20     1    1
     4     1     2   am
     5     2     3    2
     6     2     5    1
     7     5     6   ar
     8     6     7   ar
     9     7     8   ar
    10     8    11    1
    11    11    12   ar
    12    12    13   ar
    13    13    14    1
    14    13    15   ar
    15    15    16    1
    16    15    17   ar
    17    17    18    1
    18    17    19   ar
    19     8     9   ar
    20    20    21    1
    21    21    22   ar
    22    22    23   ar
    23    23    24   ar
    24    24    26    1
    25    26    27    1
    26    24    25   ar
    27     9     5   ar
    28    25    21   ar
    29    19    11   ar
    30    29    31    1
    31    29    32    1
    32     1     4    1
    33     9    10    1
    34    27    28    1
@<TRIPOS>MOLECULE
*****
 32 34 0 0 0
SMALL
GASTEIGER

@<TRIPOS>ATOM
      1 N          64.5951   88.2556   15.3126 N.am    1  UNL1       -0.2946
      2 C          63.9170   89.5419   14.9440 C.2     1  UNL1        0.2618
      3 O          62.4224   89.6486   15.0139 O.2     1  UNL1       -0.2686
      4 H          65.5760   88.1856   15.2667 H       1  UNL1        0.1501
      5 C          64.7334   90.7214   14.5057 C.ar    1  UNL1        0.1107
      6 C          65.4571   91.6769   15.4075 C.ar    1  UNL1        0.0231
      7 C          66.1405   92.6985   14.5477 C.ar    1  UNL1        0.0186
      8 C          65.8392   92.3744   13.1145 C.ar    1  UNL1        0.0569
      9 N          64.9695   91.1525   13.0885 N.ar    1  UNL1       -0.3496
     10 H          64.6159   90.7109   12.2828 H       1  UNL1        0.1661
     11 C          66.3226   93.1381   11.9173 C.ar    1  UNL1        0.0201
     12 C          66.0795   94.6152   11.8217 C.ar    1  UNL1        0.0321
     13 C          66.5629   95.3788   10.6246 C.ar    1  UNL1        0.1528
     14 F          66.3197   96.8560   10.5289 F       1  UNL1       -0.2032
     15 C          67.2894   94.6654    9.5231 C.ar    1  UNL1        0.1124
     16 CL         67.7728   95.4292    8.3260 Cl      1  UNL1       -0.0775
     17 C          67.5325   93.1884    9.6188 C.ar    1  UNL1        0.1528
     18 F          68.2591   92.4750    8.5173 F       1  UNL1       -0.2032
     19 C          67.0491   92.4248   10.8159 C.ar    1  UNL1        0.0321
     20 C          63.7786   87.0761   15.7509 C.3     1  UNL1        0.1341
     21 C          63.8411   85.7920   14.9783 C.ar    1  UNL1        0.1072
     22 N          63.9829   84.4176   15.5623 N.ar    1  UNL1       -0.2397
     23 C          64.0022   83.4329   14.4309 C.ar    1  UNL1        0.1037
     24 C          63.8724   84.1987   13.1477 C.ar    1  UNL1        0.0568
     25 S          63.7729   85.6566   13.4860 S.2     1  UNL1       -0.0710
     26 C          63.8467   83.6099   11.7683 C.3     1  UNL1        0.1717
     27 O          64.9926   82.7679   11.2908 O.3     1  UNL1       -0.3767
     28 H          65.7890   83.3168   11.2181 H       1  UNL1        0.2109
     29 N          61.7966   86.1872   17.1762 N.3     1  UNL1       -0.3194
     30 C          62.8996   87.1809   16.9619 C.3     1  UNL1        0.0917
     31 H          61.3042   86.4073   18.0420 H       1  UNL1        0.1189
     32 H          62.1917   85.2489   17.2389 H       1  UNL1        0.1189
@<TRIPOS>BOND
     1    29    30    1
     2    30    20    1
     3    20     1    1
     4     1     2   am
     5     2     3    2
     6     2     5    1
     7     5     6   ar
     8     6     7   ar
     9     7     8   ar
    10     8    11    1
    11    11    12   ar
    12    12    13   ar
    13    13    14    1
    14    13    15   ar
    15    15    16    1
    16    15    17   ar
    17    17    18    1
    18    17    19   ar
    19     8     9   ar
    20    20    21    1
    21    21    22   ar
    22    22    23   ar
    23    23    24   ar
    24    24    26    1
    25    26    27    1
    26    24    25   ar
    27     9     5   ar
    28    25    21   ar
    29    19    11   ar
    30    29    31    1
    31    29    32    1
    32     1     4    1
    33     9    10    1
    34    27    28    1
@<TRIPOS>MOLECULE
*****
 32 34 0 0 0
SMALL
GASTEIGER

@<TRIPOS>ATOM
      1 N          64.6012   90.0724   13.4344 N.am    1  UNL1       -0.2946
      2 C          63.3885   89.9380   12.5617 C.2     1  UNL1        0.2618
      3 O          62.5637   91.1468   12.2325 O.2     1  UNL1       -0.2686
      4 H          65.1425   89.2789   13.6504 H       1  UNL1        0.1501
      5 C          63.0006   88.5948   12.0184 C.ar    1  UNL1        0.1107
      6 C          62.2918   88.3395   10.7213 C.ar    1  UNL1        0.0231
      7 C          62.1065   86.8579   10.5780 C.ar    1  UNL1        0.0186
      8 C          62.7008   86.1975   11.7865 C.ar    1  UNL1        0.0569
      9 N          63.2534   87.2709   12.6767 N.ar    1  UNL1       -0.3496
     10 H          63.7031   87.1310   13.5413 H       1  UNL1        0.1661
     11 C          62.7364   84.7225   12.0573 C.ar    1  UNL1        0.0201
     12 C          62.4231   84.2041   13.4295 C.ar    1  UNL1        0.0321
     13 C          62.4587   82.7292   13.7003 C.ar    1  UNL1        0.1528
     14 F          62.1454   82.2108   15.0726 F       1  UNL1       -0.2032
     15 C          62.8075   81.7727   12.5987 C.ar    1  UNL1        0.1124
     16 CL         62.8430   80.2977   12.8695 Cl      1  UNL1       -0.0775
     17 C          63.1208   82.2910   11.2265 C.ar    1  UNL1        0.1528
     18 F          63.4696   81.3345   10.1250 F       1  UNL1       -0.2032
     19 C          63.0852   83.7659   10.9558 C.ar    1  UNL1        0.0321
     20 C          64.9891   91.4156   13.9777 C.3     1  UNL1        0.1341
     21 C          65.5771   92.4519   13.0665 C.ar    1  UNL1        0.1072
     22 N          65.8638   93.8801   13.4243 N.ar    1  UNL1       -0.2397
     23 C          66.4455   94.5527   12.2164 C.ar    1  UNL1        0.1037
     24 C          66.5184   93.5403   11.1120 C.ar    1  UNL1        0.0568
     25 S          65.9817   92.2419   11.6374 S.2     1  UNL1       -0.0710
     26 C          67.0369   93.7835    9.7256 C.3     1  UNL1        0.1717
     27 O          68.4519   94.2382    9.5232 O.3     1  UNL1       -0.3767
     28 H          68.5625   95.1268    9.8961 H       1  UNL1        0.2109
     29 N          65.6126   92.7870   16.0944 N.3     1  UNL1       -0.3194
     30 C          64.7889   91.7225   15.4323 C.3     1  UNL1        0.0917
     31 H          65.3463   92.8615   17.0762 H       1  UNL1        0.1189
     32 H          65.4509   93.6804   15.6295 H       1  UNL1        0.1189
@<TRIPOS>BOND
     1    29    30    1
     2    30    20    1
     3    20     1    1
     4     1     2   am
     5     2     3    2
     6     2     5    1
     7     5     6   ar
     8     6     7   ar
     9     7     8   ar
    10     8    11    1
    11    11    12   ar
    12    12    13   ar
    13    13    14    1
    14    13    15   ar
    15    15    16    1
    16    15    17   ar
    17    17    18    1
    18    17    19   ar
    19     8     9   ar
    20    20    21    1
    21    21    22   ar
    22    22    23   ar
    23    23    24   ar
    24    24    26    1
    25    26    27    1
    26    24    25   ar
    27     9     5   ar
    28    25    21   ar
    29    19    11   ar
    30    29    31    1
    31    29    32    1
    32     1     4    1
    33     9    10    1
    34    27    28    1
@<TRIPOS>MOLECULE
*****
 32 34 0 0 0
SMALL
GASTEIGER

@<TRIPOS>ATOM
      1 N          65.3513   91.4168   12.6828 N.am    1  UNL1       -0.2946
      2 C          64.1685   90.7726   13.3432 C.2     1  UNL1        0.2618
      3 O          63.4838   91.4576   14.4886 O.2     1  UNL1       -0.2686
      4 H          65.8007   90.9672   11.9310 H       1  UNL1        0.1501
      5 C          63.6704   89.4435   12.8581 C.ar    1  UNL1        0.1107
      6 C          62.7836   89.2143   11.6702 C.ar    1  UNL1        0.0231
      7 C          62.5367   87.7394   11.5537 C.ar    1  UNL1        0.0186
      8 C          63.2709   87.0570   12.6696 C.ar    1  UNL1        0.0569
      9 N          63.9716   88.1102   13.4758 N.ar    1  UNL1       -0.3496
     10 H          64.5309   87.9538   14.2707 H       1  UNL1        0.1661
     11 C          63.2995   85.5805   12.9331 C.ar    1  UNL1        0.0201
     12 C          62.7085   84.6290   11.9355 C.ar    1  UNL1        0.0321
     13 C          62.7371   83.1527   12.1990 C.ar    1  UNL1        0.1528
     14 F          62.1460   82.2011   11.2014 F       1  UNL1       -0.2032
     15 C          63.3567   82.6278   13.4602 C.ar    1  UNL1        0.1124
     16 CL         63.3853   81.1513   13.7237 Cl      1  UNL1       -0.0775
     17 C          63.9478   83.5793   14.4578 C.ar    1  UNL1        0.1528
     18 F          64.5675   83.0544   15.7190 F       1  UNL1       -0.2032
     19 C          63.9192   85.0556   14.1943 C.ar    1  UNL1        0.0321
     20 C          65.8494   92.7459   13.1679 C.3     1  UNL1        0.1341
     21 C          66.0926   93.8577   12.1908 C.ar    1  UNL1        0.1072
     22 N          66.1611   95.3200   12.5181 N.ar    1  UNL1       -0.2397
     23 C          66.4208   96.0684   11.2444 C.ar    1  UNL1        0.1037
     24 C          66.5129   95.0688   10.1299 C.ar    1  UNL1        0.0568
     25 S          66.3100   93.7025   10.7148 S.2     1  UNL1       -0.0710
     26 C          66.7637   95.3807    8.6843 C.3     1  UNL1        0.1717
     27 O          67.9955   96.1367    8.2829 O.3     1  UNL1       -0.3767
     28 H          67.9517   97.0382    8.6382 H       1  UNL1        0.2109
     29 N          67.2420   93.8353   15.0715 N.3     1  UNL1       -0.3194
     30 C          66.1043   92.9632   14.6300 C.3     1  UNL1        0.0917
     31 H          67.2675   93.8711   16.0905 H       1  UNL1        0.1189
     32 H          67.1121   94.7769   14.7014 H       1  UNL1        0.1189
@<TRIPOS>BOND
     1    29    30    1
     2    30    20    1
     3    20     1    1
     4     1     2   am
     5     2     3    2
     6     2     5    1
     7     5     6   ar
     8     6     7   ar
     9     7     8   ar
    10     8    11    1
    11    11    12   ar
    12    12    13   ar
    13    13    14    1
    14    13    15   ar
    15    15    16    1
    16    15    17   ar
    17    17    18    1
    18    17    19   ar
    19     8     9   ar
    20    20    21    1
    21    21    22   ar
    22    22    23   ar
    23    23    24   ar
    24    24    26    1
    25    26    27    1
    26    24    25   ar
    27     9     5   ar
    28    25    21   ar
    29    19    11   ar
    30    29    31    1
    31    29    32    1
    32     1     4    1
    33     9    10    1
    34    27    28    1
@<TRIPOS>MOLECULE
*****
 32 34 0 0 0
SMALL
GASTEIGER

@<TRIPOS>ATOM
      1 N          64.7784   91.9623   11.6841 N.am    1  UNL1       -0.2946
      2 C          63.7835   91.2972   12.5884 C.2     1  UNL1        0.2618
      3 O          63.7912   91.5934   14.0588 O.2     1  UNL1       -0.2686
      4 H          64.7733   91.7679   10.7190 H       1  UNL1        0.1501
      5 C          62.7808   90.3359   12.0223 C.ar    1  UNL1        0.1107
      6 C          61.3749   90.1407   12.5076 C.ar    1  UNL1        0.0231
      7 C          60.7331   89.0852   11.6567 C.ar    1  UNL1        0.0186
      8 C          61.7423   88.6281   10.6455 C.ar    1  UNL1        0.0569
      9 N          63.0078   89.4011   10.8714 N.ar    1  UNL1       -0.3496
     10 H          63.8411   89.3107   10.3550 H       1  UNL1        0.1661
     11 C          61.5243   87.5817    9.5931 C.ar    1  UNL1        0.0201
     12 C          60.2308   87.5386    8.8349 C.ar    1  UNL1        0.0321
     13 C          60.0128   86.4922    7.7825 C.ar    1  UNL1        0.1528
     14 F          58.7192   86.4491    7.0242 F       1  UNL1       -0.2032
     15 C          61.0884   85.4889    7.4884 C.ar    1  UNL1        0.1124
     16 CL         60.8703   84.4425    6.4359 Cl      1  UNL1       -0.0775
     17 C          62.3819   85.5320    8.2466 C.ar    1  UNL1        0.1528
     18 F          63.4574   84.5286    7.9524 F       1  UNL1       -0.2032
     19 C          62.5998   86.5783    9.2989 C.ar    1  UNL1        0.0321
     20 C          65.7811   92.9236   12.2502 C.3     1  UNL1        0.1341
     21 C          66.0943   94.1965   11.5211 C.ar    1  UNL1        0.1072
     22 N          66.1963   95.5616   12.1343 N.ar    1  UNL1       -0.2397
     23 C          66.5256   96.5366   11.0429 C.ar    1  UNL1        0.1037
     24 C          66.6271   95.7740    9.7552 C.ar    1  UNL1        0.0568
     25 S          66.3606   94.3278   10.0508 S.2     1  UNL1       -0.0710
     26 C          66.9402   96.3556    8.4085 C.3     1  UNL1        0.1717
     27 O          65.9851   96.1631    7.2680 O.3     1  UNL1       -0.3767
     28 H          65.9467   95.2226    7.0337 H       1  UNL1        0.2109
     29 N          66.1931   93.4442   14.7620 N.3     1  UNL1       -0.3194
     30 C          66.4706   92.6119   13.5454 C.3     1  UNL1        0.0917
     31 H          66.7433   93.0941   15.5463 H       1  UNL1        0.1189
     32 H          65.2008   93.3901   14.9919 H       1  UNL1        0.1189
@<TRIPOS>BOND
     1    29    30    1
     2    30    20    1
     3    20     1    1
     4     1     2   am
     5     2     3    2
     6     2     5    1
     7     5     6   ar
     8     6     7   ar
     9     7     8   ar
    10     8    11    1
    11    11    12   ar
    12    12    13   ar
    13    13    14    1
    14    13    15   ar
    15    15    16    1
    16    15    17   ar
    17    17    18    1
    18    17    19   ar
    19     8     9   ar
    20    20    21    1
    21    21    22   ar
    22    22    23   ar
    23    23    24   ar
    24    24    26    1
    25    26    27    1
    26    24    25   ar
    27     9     5   ar
    28    25    21   ar
    29    19    11   ar
    30    29    31    1
    31    29    32    1
    32     1     4    1
    33     9    10    1
    34    27    28    1
@<TRIPOS>MOLECULE
*****
 32 34 0 0 0
SMALL
GASTEIGER

@<TRIPOS>ATOM
      1 N          63.4202   89.2936   12.0009 N.am    1  UNL1       -0.2946
      2 C          63.4335   88.8196   13.4240 C.2     1  UNL1        0.2618
      3 O          63.1719   89.7877   14.5394 O.2     1  UNL1       -0.2686
      4 H          63.5919   88.6582   11.2688 H       1  UNL1        0.1501
      5 C          63.7084   87.3775   13.7316 C.ar    1  UNL1        0.1107
      6 C          64.5756   86.8625   14.8419 C.ar    1  UNL1        0.0231
      7 C          64.5676   85.3639   14.7794 C.ar    1  UNL1        0.0186
      8 C          63.6954   84.9525   13.6305 C.ar    1  UNL1        0.0569
      9 N          63.1644   86.1970   12.9829 N.ar    1  UNL1       -0.3496
     10 H          62.5642   86.2327   12.2033 H       1  UNL1        0.1661
     11 C          63.4051   83.5440   13.2040 C.ar    1  UNL1        0.0201
     12 C          62.7506   82.5908   14.1595 C.ar    1  UNL1        0.0321
     13 C          62.4603   81.1824   13.7330 C.ar    1  UNL1        0.1528
     14 F          61.8058   80.2291   14.6885 F       1  UNL1       -0.2032
     15 C          62.8247   80.7271   12.3509 C.ar    1  UNL1        0.1124
     16 CL         62.5344   79.3185   11.9244 Cl      1  UNL1       -0.0775
     17 C          63.4792   81.6802   11.3955 C.ar    1  UNL1        0.1528
     18 F          63.8435   81.2249   10.0134 F       1  UNL1       -0.2032
     19 C          63.7694   83.0887   11.8220 C.ar    1  UNL1        0.0321
     20 C          63.1452   90.7357   11.6933 C.3     1  UNL1        0.1341
     21 C          64.2449   91.7496   11.8064 C.ar    1  UNL1        0.1072
     22 N          64.8918   92.2103   13.0789 N.ar    1  UNL1       -0.2397
     23 C          65.9375   93.2262   12.7259 C.ar    1  UNL1        0.1037
     24 C          65.9369   93.3933   11.2352 C.ar    1  UNL1        0.0568
     25 S          64.8908   92.4807   10.6670 S.2     1  UNL1       -0.0710
     26 C          66.8262   94.3117   10.4506 C.3     1  UNL1        0.1717
     27 O          66.4396   94.7239    9.0612 O.3     1  UNL1       -0.3767
     28 H          66.4524   93.9485    8.4785 H       1  UNL1        0.2109
     29 N          61.1382   90.5625   10.0525 N.3     1  UNL1       -0.3194
     30 C          61.7706   91.1640   11.2725 C.3     1  UNL1        0.0917
     31 H          60.2114   90.9659    9.9161 H       1  UNL1        0.1189
     32 H          61.0551   89.5533   10.1752 H       1  UNL1        0.1189
@<TRIPOS>BOND
     1    29    30    1
     2    30    20    1
     3    20     1    1
     4     1     2   am
     5     2     3    2
     6     2     5    1
     7     5     6   ar
     8     6     7   ar
     9     7     8   ar
    10     8    11    1
    11    11    12   ar
    12    12    13   ar
    13    13    14    1
    14    13    15   ar
    15    15    16    1
    16    15    17   ar
    17    17    18    1
    18    17    19   ar
    19     8     9   ar
    20    20    21    1
    21    21    22   ar
    22    22    23   ar
    23    23    24   ar
    24    24    26    1
    25    26    27    1
    26    24    25   ar
    27     9     5   ar
    28    25    21   ar
    29    19    11   ar
    30    29    31    1
    31    29    32    1
    32     1     4    1
    33     9    10    1
    34    27    28    1
@<TRIPOS>MOLECULE
*****
 32 34 0 0 0
SMALL
GASTEIGER

@<TRIPOS>ATOM
      1 N          59.5576   90.6112    6.9458 N.am    1  UNL1       -0.2946
      2 C          59.6325   89.1942    7.4322 C.2     1  UNL1        0.2618
      3 O          59.0155   88.0906    6.6251 O.2     1  UNL1       -0.2686
      4 H          59.9626   91.3355    7.4755 H       1  UNL1        0.1501
      5 C          60.3243   88.8808    8.7257 C.ar    1  UNL1        0.1107
      6 C          60.1289   87.6451    9.5533 C.ar    1  UNL1        0.0231
      7 C          61.0169   87.7487   10.7578 C.ar    1  UNL1        0.0186
      8 C          61.7611   89.0483   10.6746 C.ar    1  UNL1        0.0569
      9 N          61.3331   89.7480    9.4187 N.ar    1  UNL1       -0.3496
     10 H          61.6573   90.6228    9.1044 H       1  UNL1        0.1661
     11 C          62.7583   89.5588   11.6722 C.ar    1  UNL1        0.0201
     12 C          63.3388   90.9331   11.5165 C.ar    1  UNL1        0.0321
     13 C          64.3359   91.4434   12.5141 C.ar    1  UNL1        0.1528
     14 F          64.9164   92.8178   12.3584 F       1  UNL1       -0.2032
     15 C          64.7526   90.5795   13.6673 C.ar    1  UNL1        0.1124
     16 CL         65.7498   91.0899   14.6649 Cl      1  UNL1       -0.0775
     17 C          64.1722   89.2052   13.8230 C.ar    1  UNL1        0.1528
     18 F          64.5889   88.3412   14.9762 F       1  UNL1       -0.2032
     19 C          63.1750   88.6948   12.8254 C.ar    1  UNL1        0.0321
     20 C          58.8658   90.9245    5.6523 C.3     1  UNL1        0.1341
     21 C          59.6175   91.6009    4.5444 C.ar    1  UNL1        0.1072
     22 N          59.0230   92.4780    3.4827 N.ar    1  UNL1       -0.2397
     23 C          60.1339   92.9380    2.5858 C.ar    1  UNL1        0.1037
     24 C          61.4149   92.3451    3.0931 C.ar    1  UNL1        0.0568
     25 S          61.0958   91.5187    4.3036 S.2     1  UNL1       -0.0710
     26 C          62.7761   92.5438    2.4950 C.3     1  UNL1        0.1717
     27 O          63.9487   91.7744    3.0271 O.3     1  UNL1       -0.3767
     28 H          64.1301   92.0512    3.9389 H       1  UNL1        0.2109
     29 N          56.4566   91.5767    4.9309 N.3     1  UNL1       -0.3194
     30 C          57.4222   90.5616    5.4668 C.3     1  UNL1        0.0917
     31 H          55.5265   91.1624    4.8704 H       1  UNL1        0.1189
     32 H          56.7570   91.8749    4.0028 H       1  UNL1        0.1189
@<TRIPOS>BOND
     1    29    30    1
     2    30    20    1
     3    20     1    1
     4     1     2   am
     5     2     3    2
     6     2     5    1
     7     5     6   ar
     8     6     7   ar
     9     7     8   ar
    10     8    11    1
    11    11    12   ar
    12    12    13   ar
    13    13    14    1
    14    13    15   ar
    15    15    16    1
    16    15    17   ar
    17    17    18    1
    18    17    19   ar
    19     8     9   ar
    20    20    21    1
    21    21    22   ar
    22    22    23   ar
    23    23    24   ar
    24    24    26    1
    25    26    27    1
    26    24    25   ar
    27     9     5   ar
    28    25    21   ar
    29    19    11   ar
    30    29    31    1
    31    29    32    1
    32     1     4    1
    33     9    10    1
    34    27    28    1
