@<TRIPOS>MOLECULE
*****
 45 48 0 0 0
SMALL
GASTEIGER

@<TRIPOS>ATOM
      1 N          60.2655   87.9284    9.0051 N.ar    1  UNL1       -0.2475
      2 C          60.9265   86.5971    9.2072 C.ar    1  UNL1        0.2831
      3 O          60.7406   85.5061    8.1945 O.2     1  UNL1       -0.2652
      4 C          61.7732   86.3568   10.4218 C.ar    1  UNL1        0.1536
      5 C          61.9590   87.4478   11.4343 C.ar    1  UNL1        0.1707
      6 N          62.8443   86.9219   12.5250 N.ar    1  UNL1       -0.1958
      7 C          63.2056   85.5060   12.1866 C.ar    1  UNL1        0.2026
      8 N          62.5437   85.1567   10.8867 N.ar    1  UNL1       -0.2945
      9 C          62.7280   83.7910   10.2944 C.3     1  UNL1        0.1107
     10 C          63.5742   82.7746   11.0019 C.3     1  UNL1        0.0461
     11 C          64.2362   83.1239   12.3019 C.3     1  UNL1        0.0956
     12 N          64.0519   84.4896   12.8942 N.pl3   1  UNL1       -0.2791
     13 N          61.2980   88.7791   11.2322 N.ar    1  UNL1       -0.2648
     14 C          60.4513   89.0194   10.0176 C.ar    1  UNL1        0.3349
     15 O          59.7903   90.3507    9.8156 O.2     1  UNL1       -0.2461
     16 C          64.7139   84.8389   14.1941 C.3     1  UNL1        0.0982
     17 C          63.8993   85.3919   15.3258 C.3     1  UNL1        0.0478
     18 C          63.8341   86.8738   15.5488 C.ar    1  UNL1       -0.0203
     19 C          63.0825   87.4229   16.7251 C.ar    1  UNL1       -0.0011
     20 C          63.0173   88.9048   16.9481 C.ar    1  UNL1        0.0366
     21 C          63.7037   89.8376   15.9948 C.ar    1  UNL1        0.1393
     22 C          64.4553   89.2885   14.8185 C.ar    1  UNL1        0.0366
     23 C          64.5205   87.8066   14.5955 C.ar    1  UNL1       -0.0011
     24 O          63.6385   91.3195   16.2178 O.3     1  UNL1       -0.4656
     25 C          64.8709   92.0717   16.6246 C.3     1  UNL1        0.2893
     26 C          65.8715   92.4886   15.5878 C.2     1  UNL1        0.2670
     27 O          67.2394   92.9413   16.0049 O.2     1  UNL1       -0.2711
     28 N          65.5042   92.4529   14.1339 N.am    1  UNL1       -0.3013
     29 H          64.6064   92.1558   13.8602 H       1  UNL1        0.1495
     30 C          66.5048   92.8699   13.0971 C.3     1  UNL1        0.0909
     31 C          66.2271   94.0553   12.2209 C.3     1  UNL1        0.0386
     32 C          66.1643   93.8887   10.7315 C.3     1  UNL1        0.0738
     33 N          67.2515   94.4548    9.8669 N.3     1  UNL1       -0.2726
     34 C          68.2604   93.5414    9.2363 C.3     1  UNL1        0.0721
     35 C          68.2820   92.0852    9.5961 C.3     1  UNL1        0.0188
     36 C          67.3299   95.9344    9.6330 C.3     1  UNL1        0.0721
     37 C          66.1891   96.6508    8.9732 C.3     1  UNL1        0.0188
     38 C          59.4187   88.1687    7.7904 C.3     1  UNL1        0.1136
     39 C          59.7624   89.2812    6.8448 C.3     1  UNL1        0.0247
     40 C          58.9999   91.0790    5.1311 C.3     1  UNL1        0.0001
     41 C          58.6702   90.0894    6.2091 C.3     1  UNL1        0.0020
     42 C          61.4838   89.8701   12.2448 C.3     1  UNL1        0.1120
     43 C          62.8020   90.5781   12.3511 C.3     1  UNL1        0.0247
     44 C          63.6839   90.7066   11.1447 C.3     1  UNL1        0.0020
     45 C          63.2152   91.4874    9.9527 C.3     1  UNL1        0.0001
@<TRIPOS>BOND
     1    40    41    1
     2    41    39    1
     3    39    38    1
     4    38     1    1
     5     1     2   ar
     6     2     3    2
     7     2     4   ar
     8     4     5   ar
     9     5     6   ar
    10     6     7   ar
    11     7     8   ar
    12     8     9    1
    13     9    10    1
    14    10    11    1
    15    11    12    1
    16    12    16    1
    17    16    17    1
    18    17    18    1
    19    18    19   ar
    20    19    20   ar
    21    20    21   ar
    22    21    24    1
    23    24    25    1
    24    25    26    1
    25    26    27    2
    26    26    28   am
    27    28    30    1
    28    30    31    1
    29    31    32    1
    30    32    33    1
    31    33    36    1
    32    36    37    1
    33    33    34    1
    34    34    35    1
    35    21    22   ar
    36    22    23   ar
    37     5    13   ar
    38    13    42    1
    39    42    43    1
    40    43    44    1
    41    44    45    1
    42    13    14   ar
    43    14    15    2
    44    14     1   ar
    45     8     4   ar
    46    23    18   ar
    47    12     7    1
    48    28    29    1
@<TRIPOS>MOLECULE
*****
 45 48 0 0 0
SMALL
GASTEIGER

@<TRIPOS>ATOM
      1 N          63.8166   82.7309   13.0538 N.ar    1  UNL1       -0.2475
      2 C          63.1868   83.2353   11.7893 C.ar    1  UNL1        0.2831
      3 O          62.9241   82.2911   10.6537 O.2     1  UNL1       -0.2652
      4 C          62.8196   84.6840   11.6604 C.ar    1  UNL1        0.1536
      5 C          63.0822   85.6281   12.7960 C.ar    1  UNL1        0.1707
      6 N          62.6159   86.9923   12.3818 N.ar    1  UNL1       -0.1958
      7 C          62.0651   86.8913   10.9903 C.ar    1  UNL1        0.2026
      8 N          62.1910   85.4646   10.5444 N.ar    1  UNL1       -0.2945
      9 C          61.7169   85.0607    9.1799 C.3     1  UNL1        0.1107
     10 C          61.1170   86.0834    8.2611 C.3     1  UNL1        0.0461
     11 C          60.9912   87.5101    8.7070 C.3     1  UNL1        0.0956
     12 N          61.4652   87.9140   10.0716 N.pl3   1  UNL1       -0.2791
     13 N          63.7121   85.1237   14.0605 N.ar    1  UNL1       -0.2648
     14 C          64.0793   83.6750   14.1894 C.ar    1  UNL1        0.3349
     15 O          64.7091   83.1706   15.4538 O.2     1  UNL1       -0.2461
     16 C          61.3393   89.3407   10.5174 C.3     1  UNL1        0.0982
     17 C          62.4673   90.3016   10.2843 C.3     1  UNL1        0.0478
     18 C          63.3489   90.7143   11.4255 C.ar    1  UNL1       -0.0203
     19 C          64.2044   91.9408   11.3069 C.ar    1  UNL1       -0.0011
     20 C          65.0861   92.3534   12.4481 C.ar    1  UNL1        0.0366
     21 C          65.1123   91.5396   13.7079 C.ar    1  UNL1        0.1393
     22 C          64.2569   90.3132   13.8265 C.ar    1  UNL1        0.0366
     23 C          63.3752   89.9005   12.6853 C.ar    1  UNL1       -0.0011
     24 O          65.9940   91.9523   14.8491 O.3     1  UNL1       -0.4656
     25 C          67.4492   91.5884   14.8423 C.3     1  UNL1        0.2893
     26 C          68.2991   91.9181   13.6510 C.2     1  UNL1        0.2670
     27 O          69.7037   92.4079   13.8443 O.2     1  UNL1       -0.2711
     28 N          67.7444   91.7580   12.2666 N.am    1  UNL1       -0.3013
     29 H          66.8226   91.4365   12.1398 H       1  UNL1        0.1495
     30 C          68.5943   92.0877   11.0754 C.3     1  UNL1        0.0909
     31 C          67.9501   92.5106    9.7884 C.3     1  UNL1        0.0386
     32 C          68.2656   93.8527    9.1975 C.3     1  UNL1        0.0738
     33 N          67.4025   95.0361    9.5207 N.3     1  UNL1       -0.2726
     34 C          66.5129   95.0081   10.7281 C.3     1  UNL1        0.0721
     35 C          66.1320   96.2894   11.4089 C.3     1  UNL1        0.0188
     36 C          67.4290   96.2476    8.6365 C.3     1  UNL1        0.0721
     37 C          66.3517   96.4529    7.6132 C.3     1  UNL1        0.0188
     38 C          64.1838   81.2822   13.1826 C.3     1  UNL1        0.1136
     39 C          63.2480   80.3292   13.8654 C.3     1  UNL1        0.0247
     40 C          60.7077   80.8174   14.1080 C.3     1  UNL1        0.0001
     41 C          61.8417   80.1729   13.3673 C.3     1  UNL1        0.0020
     42 C          63.9747   86.0678   15.1961 C.3     1  UNL1        0.1120
     43 C          63.2848   85.8675   16.5129 C.3     1  UNL1        0.0247
     44 C          62.7859   87.0520   17.2861 C.3     1  UNL1        0.0020
     45 C          63.1287   88.4408   16.8347 C.3     1  UNL1        0.0001
@<TRIPOS>BOND
     1    40    41    1
     2    41    39    1
     3    39    38    1
     4    38     1    1
     5     1     2   ar
     6     2     3    2
     7     2     4   ar
     8     4     5   ar
     9     5     6   ar
    10     6     7   ar
    11     7     8   ar
    12     8     9    1
    13     9    10    1
    14    10    11    1
    15    11    12    1
    16    12    16    1
    17    16    17    1
    18    17    18    1
    19    18    19   ar
    20    19    20   ar
    21    20    21   ar
    22    21    24    1
    23    24    25    1
    24    25    26    1
    25    26    27    2
    26    26    28   am
    27    28    30    1
    28    30    31    1
    29    31    32    1
    30    32    33    1
    31    33    36    1
    32    36    37    1
    33    33    34    1
    34    34    35    1
    35    21    22   ar
    36    22    23   ar
    37     5    13   ar
    38    13    42    1
    39    42    43    1
    40    43    44    1
    41    44    45    1
    42    13    14   ar
    43    14    15    2
    44    14     1   ar
    45     8     4   ar
    46    23    18   ar
    47    12     7    1
    48    28    29    1
@<TRIPOS>MOLECULE
*****
 45 48 0 0 0
SMALL
GASTEIGER

@<TRIPOS>ATOM
      1 N          65.3990   92.2193   13.9680 N.ar    1  UNL1       -0.2475
      2 C          64.1028   91.4700   14.0599 C.ar    1  UNL1        0.2831
      3 O          63.4955   91.1838   15.4014 O.2     1  UNL1       -0.2652
      4 C          63.4139   91.0070   12.8106 C.ar    1  UNL1        0.1536
      5 C          64.0212   91.2933   11.4692 C.ar    1  UNL1        0.1707
      6 N          63.1188   90.7161   10.4192 N.ar    1  UNL1       -0.1958
      7 C          61.9538   90.0731   11.1116 C.ar    1  UNL1        0.2026
      8 N          62.1362   90.2529   12.5896 N.ar    1  UNL1       -0.2945
      9 C          61.1152   89.7068   13.5432 C.3     1  UNL1        0.1107
     10 C          59.9119   88.9808   13.0189 C.3     1  UNL1        0.0461
     11 C          59.7296   88.8010   11.5409 C.3     1  UNL1        0.0956
     12 N          60.7505   89.3471   10.5873 N.pl3   1  UNL1       -0.2791
     13 N          65.3174   92.0425   11.3772 N.ar    1  UNL1       -0.2648
     14 C          66.0063   92.5055   12.6266 C.ar    1  UNL1        0.3349
     15 O          67.3026   93.2548   12.5346 O.2     1  UNL1       -0.2461
     16 C          60.5681   89.1673    9.1093 C.3     1  UNL1        0.0982
     17 C          60.3723   87.7937    8.5394 C.3     1  UNL1        0.0478
     18 C          61.3159   86.6874    8.9077 C.ar    1  UNL1       -0.0203
     19 C          62.0982   85.9822    7.8395 C.ar    1  UNL1       -0.0011
     20 C          63.0419   84.8759    8.2078 C.ar    1  UNL1        0.0366
     21 C          63.2032   84.4748    9.6442 C.ar    1  UNL1        0.1393
     22 C          62.4209   85.1799   10.7122 C.ar    1  UNL1        0.0366
     23 C          61.4773   86.2862   10.3440 C.ar    1  UNL1       -0.0011
     24 O          64.1469   83.3685   10.0125 O.3     1  UNL1       -0.4656
     25 C          63.6099   82.0597   10.5115 C.3     1  UNL1        0.2893
     26 C          63.4485   81.8281   11.9847 C.2     1  UNL1        0.2670
     27 O          62.7371   80.6029   12.4778 O.2     1  UNL1       -0.2711
     28 N          63.9984   82.8215   12.9648 N.am    1  UNL1       -0.3013
     29 H          64.4653   83.6256   12.6412 H       1  UNL1        0.1495
     30 C          63.8369   82.5899   14.4380 C.3     1  UNL1        0.0909
     31 C          62.6719   83.1896   15.1683 C.3     1  UNL1        0.0386
     32 C          62.3891   84.6581   15.0518 C.3     1  UNL1        0.0738
     33 N          63.3091   85.6524   15.6960 N.3     1  UNL1       -0.2726
     34 C          64.4357   86.2520   14.9079 C.3     1  UNL1        0.0721
     35 C          64.3870   87.6976   14.5106 C.3     1  UNL1        0.0188
     36 C          63.1023   86.0472   17.1283 C.3     1  UNL1        0.0721
     37 C          62.7213   87.4571   17.4701 C.3     1  UNL1        0.0188
     38 C          66.0880   92.6823   15.2174 C.3     1  UNL1        0.1136
     39 C          67.2845   91.9392   15.7334 C.3     1  UNL1        0.0247
     40 C          68.8087   94.0290   15.9777 C.3     1  UNL1        0.0001
     41 C          68.6439   92.5702   15.6699 C.3     1  UNL1        0.0020
     42 C          65.9247   92.3287   10.0359 C.3     1  UNL1        0.1120
     43 C          66.7283   93.5781    9.8276 C.3     1  UNL1        0.0247
     44 C          67.9595   93.5440    8.9716 C.3     1  UNL1        0.0020
     45 C          69.0444   92.5483    9.2574 C.3     1  UNL1        0.0001
@<TRIPOS>BOND
     1    40    41    1
     2    41    39    1
     3    39    38    1
     4    38     1    1
     5     1     2   ar
     6     2     3    2
     7     2     4   ar
     8     4     5   ar
     9     5     6   ar
    10     6     7   ar
    11     7     8   ar
    12     8     9    1
    13     9    10    1
    14    10    11    1
    15    11    12    1
    16    12    16    1
    17    16    17    1
    18    17    18    1
    19    18    19   ar
    20    19    20   ar
    21    20    21   ar
    22    21    24    1
    23    24    25    1
    24    25    26    1
    25    26    27    2
    26    26    28   am
    27    28    30    1
    28    30    31    1
    29    31    32    1
    30    32    33    1
    31    33    36    1
    32    36    37    1
    33    33    34    1
    34    34    35    1
    35    21    22   ar
    36    22    23   ar
    37     5    13   ar
    38    13    42    1
    39    42    43    1
    40    43    44    1
    41    44    45    1
    42    13    14   ar
    43    14    15    2
    44    14     1   ar
    45     8     4   ar
    46    23    18   ar
    47    12     7    1
    48    28    29    1
@<TRIPOS>MOLECULE
*****
 45 48 0 0 0
SMALL
GASTEIGER

@<TRIPOS>ATOM
      1 N          62.2953   85.4988    8.5702 N.ar    1  UNL1       -0.2475
      2 C          62.9405   84.5105    9.4960 C.ar    1  UNL1        0.2831
      3 O          63.7584   83.3836    8.9381 O.2     1  UNL1       -0.2652
      4 C          62.7677   84.6491   10.9795 C.ar    1  UNL1        0.1536
      5 C          61.9498   85.7760   11.5373 C.ar    1  UNL1        0.1707
      6 N          61.9564   85.6576   13.0326 N.ar    1  UNL1       -0.1958
      7 C          62.7784   84.4576   13.3990 C.ar    1  UNL1        0.2026
      8 N          63.2799   83.8343   12.1301 N.ar    1  UNL1       -0.2945
      9 C          64.1380   82.6053   12.1863 C.3     1  UNL1        0.1107
     10 C          64.4947   81.9997   13.5113 C.3     1  UNL1        0.0461
     11 C          63.9933   82.6230   14.7802 C.3     1  UNL1        0.0956
     12 N          63.1352   83.8520   14.7240 N.pl3   1  UNL1       -0.2791
     13 N          61.3046   86.7643   10.6115 N.ar    1  UNL1       -0.2648
     14 C          61.4773   86.6257    9.1280 C.ar    1  UNL1        0.3349
     15 O          60.8322   87.6140    8.2022 O.2     1  UNL1       -0.2461
     16 C          62.6338   84.4753   15.9929 C.3     1  UNL1        0.0982
     17 C          63.5108   85.4171   16.7634 C.3     1  UNL1        0.0478
     18 C          63.5370   86.8750   16.4115 C.ar    1  UNL1       -0.0203
     19 C          64.2195   87.3314   15.1561 C.ar    1  UNL1       -0.0011
     20 C          64.2458   88.7893   14.8042 C.ar    1  UNL1        0.0366
     21 C          63.5894   89.7908   15.7076 C.ar    1  UNL1        0.1393
     22 C          62.9069   89.3345   16.9630 C.ar    1  UNL1        0.0366
     23 C          62.8807   87.8766   17.3149 C.ar    1  UNL1       -0.0011
     24 O          63.6156   91.2487   15.3557 O.3     1  UNL1       -0.4656
     25 C          64.5746   92.1705   16.0492 C.3     1  UNL1        0.2893
     26 C          65.9936   92.2726   15.5736 C.2     1  UNL1        0.2670
     27 O          67.0358   92.8986   16.4522 O.2     1  UNL1       -0.2711
     28 N          66.3703   91.7485   14.2196 N.am    1  UNL1       -0.3013
     29 H          65.6863   91.3376   13.6430 H       1  UNL1        0.1495
     30 C          67.7893   91.8506   13.7441 C.3     1  UNL1        0.0909
     31 C          68.0792   92.0471   12.2855 C.3     1  UNL1        0.0386
     32 C          66.9823   92.4682   11.3530 C.3     1  UNL1        0.0738
     33 N          67.1348   93.7122   10.5290 N.3     1  UNL1       -0.2726
     34 C          66.6250   95.0235   11.0493 C.3     1  UNL1        0.0721
     35 C          65.5484   95.7577   10.3063 C.3     1  UNL1        0.0188
     36 C          67.7970   93.6451    9.1848 C.3     1  UNL1        0.0721
     37 C          68.6367   92.4566    8.8209 C.3     1  UNL1        0.0188
     38 C          62.4681   85.3602    7.0866 C.3     1  UNL1        0.1136
     39 C          61.3872   84.7268    6.2617 C.3     1  UNL1        0.0247
     40 C          61.6184   84.2825    3.7122 C.3     1  UNL1        0.0001
     41 C          61.7472   83.8102    5.1301 C.3     1  UNL1        0.0020
     42 C          60.4867   87.8912   11.1693 C.3     1  UNL1        0.1120
     43 C          61.1124   89.2375   11.3838 C.3     1  UNL1        0.0247
     44 C          62.5747   89.4363   11.1158 C.3     1  UNL1        0.0020
     45 C          63.0362   90.6142   10.3098 C.3     1  UNL1        0.0001
@<TRIPOS>BOND
     1    40    41    1
     2    41    39    1
     3    39    38    1
     4    38     1    1
     5     1     2   ar
     6     2     3    2
     7     2     4   ar
     8     4     5   ar
     9     5     6   ar
    10     6     7   ar
    11     7     8   ar
    12     8     9    1
    13     9    10    1
    14    10    11    1
    15    11    12    1
    16    12    16    1
    17    16    17    1
    18    17    18    1
    19    18    19   ar
    20    19    20   ar
    21    20    21   ar
    22    21    24    1
    23    24    25    1
    24    25    26    1
    25    26    27    2
    26    26    28   am
    27    28    30    1
    28    30    31    1
    29    31    32    1
    30    32    33    1
    31    33    36    1
    32    36    37    1
    33    33    34    1
    34    34    35    1
    35    21    22   ar
    36    22    23   ar
    37     5    13   ar
    38    13    42    1
    39    42    43    1
    40    43    44    1
    41    44    45    1
    42    13    14   ar
    43    14    15    2
    44    14     1   ar
    45     8     4   ar
    46    23    18   ar
    47    12     7    1
    48    28    29    1
@<TRIPOS>MOLECULE
*****
 45 48 0 0 0
SMALL
GASTEIGER

@<TRIPOS>ATOM
      1 N          63.1189   81.9193   13.2472 N.ar    1  UNL1       -0.2475
      2 C          63.1731   83.0040   14.2818 C.ar    1  UNL1        0.2831
      3 O          63.0405   82.6608   15.7360 O.2     1  UNL1       -0.2652
      4 C          63.3599   84.4320   13.8622 C.ar    1  UNL1        0.1536
      5 C          63.4926   84.7751   12.4081 C.ar    1  UNL1        0.1707
      6 N          63.6659   86.2609   12.2964 N.ar    1  UNL1       -0.1958
      7 C          63.6404   86.8360   13.6816 C.ar    1  UNL1        0.2026
      8 N          63.4513   85.7056   14.6493 N.ar    1  UNL1       -0.2945
      9 C          63.3867   85.9821   16.1222 C.3     1  UNL1        0.1107
     10 C          63.5113   87.3889   16.6273 C.3     1  UNL1        0.0461
     11 C          63.7004   88.5193   15.6596 C.3     1  UNL1        0.0956
     12 N          63.7649   88.2428   14.1867 N.pl3   1  UNL1       -0.2791
     13 N          63.4384   83.6904   11.3735 N.ar    1  UNL1       -0.2648
     14 C          63.2515   82.2624   11.7930 C.ar    1  UNL1        0.3349
     15 O          63.1973   81.1777   10.7584 O.2     1  UNL1       -0.2461
     16 C          63.9540   89.3732   13.2190 C.3     1  UNL1        0.0982
     17 C          62.7940   90.2525   12.8569 C.3     1  UNL1        0.0478
     18 C          61.9159   89.8948   11.6946 C.ar    1  UNL1       -0.0203
     19 C          60.5380   90.4783   11.5882 C.ar    1  UNL1       -0.0011
     20 C          59.6598   90.1206   10.4259 C.ar    1  UNL1        0.0366
     21 C          60.1595   89.1794    9.3701 C.ar    1  UNL1        0.1393
     22 C          61.5372   88.5960    9.4766 C.ar    1  UNL1        0.0366
     23 C          62.4154   88.9537   10.6389 C.ar    1  UNL1       -0.0011
     24 O          59.2813   88.8217    8.2079 O.3     1  UNL1       -0.4656
     25 C          59.7502   89.0791    6.8064 C.3     1  UNL1        0.2893
     26 C          59.0774   90.1277    5.9711 C.2     1  UNL1        0.2670
     27 O          57.5806   90.1678    5.8804 O.2     1  UNL1       -0.2711
     28 N          59.9012   91.1360    5.2265 N.am    1  UNL1       -0.3013
     29 H          60.8836   91.1096    5.2860 H       1  UNL1        0.1495
     30 C          59.2284   92.1846    4.3912 C.3     1  UNL1        0.0909
     31 C          60.0529   93.1504    3.5927 C.3     1  UNL1        0.0386
     32 C          59.8361   93.2778    2.1140 C.3     1  UNL1        0.0738
     33 N          60.9755   93.0466    1.1662 N.3     1  UNL1       -0.2726
     34 C          60.7806   92.1828   -0.0444 C.3     1  UNL1        0.0721
     35 C          60.5161   92.8121   -1.3801 C.3     1  UNL1        0.0188
     36 C          62.3099   93.6794    1.4292 C.3     1  UNL1        0.0721
     37 C          63.5282   92.8199    1.5932 C.3     1  UNL1        0.0188
     38 C          62.9320   80.4913   13.6668 C.3     1  UNL1        0.1136
     39 C          61.5534   79.9041   13.7356 C.3     1  UNL1        0.0247
     40 C          59.0163   80.1717   14.2273 C.3     1  UNL1        0.0001
     41 C          60.4002   80.7491   14.1897 C.3     1  UNL1        0.0020
     42 C          63.5710   84.0336    9.9193 C.3     1  UNL1        0.1120
     43 C          62.7739   85.1645    9.3398 C.3     1  UNL1        0.0247
     44 C          62.7288   85.3664    7.8542 C.3     1  UNL1        0.0020
     45 C          61.4275   85.2394    7.1192 C.3     1  UNL1        0.0001
@<TRIPOS>BOND
     1    40    41    1
     2    41    39    1
     3    39    38    1
     4    38     1    1
     5     1     2   ar
     6     2     3    2
     7     2     4   ar
     8     4     5   ar
     9     5     6   ar
    10     6     7   ar
    11     7     8   ar
    12     8     9    1
    13     9    10    1
    14    10    11    1
    15    11    12    1
    16    12    16    1
    17    16    17    1
    18    17    18    1
    19    18    19   ar
    20    19    20   ar
    21    20    21   ar
    22    21    24    1
    23    24    25    1
    24    25    26    1
    25    26    27    2
    26    26    28   am
    27    28    30    1
    28    30    31    1
    29    31    32    1
    30    32    33    1
    31    33    36    1
    32    36    37    1
    33    33    34    1
    34    34    35    1
    35    21    22   ar
    36    22    23   ar
    37     5    13   ar
    38    13    42    1
    39    42    43    1
    40    43    44    1
    41    44    45    1
    42    13    14   ar
    43    14    15    2
    44    14     1   ar
    45     8     4   ar
    46    23    18   ar
    47    12     7    1
    48    28    29    1
@<TRIPOS>MOLECULE
*****
 45 48 0 0 0
SMALL
GASTEIGER

@<TRIPOS>ATOM
      1 N          63.7127   95.4165   -4.2942 N.ar    1  UNL1       -0.2475
      2 C          62.3839   94.7699   -4.0369 C.ar    1  UNL1        0.2831
      3 O          61.5704   94.2457   -5.1831 O.2     1  UNL1       -0.2652
      4 C          61.8685   94.6475   -2.6336 C.ar    1  UNL1        0.1536
      5 C          62.6819   95.1717   -1.4875 C.ar    1  UNL1        0.1707
      6 N          61.9206   94.9115   -0.2216 N.ar    1  UNL1       -0.1958
      7 C          60.6366   94.2265   -0.5853 C.ar    1  UNL1        0.2026
      8 N          60.6044   94.0633   -2.0760 N.ar    1  UNL1       -0.2945
      9 C          59.4283   93.4039   -2.7331 C.3     1  UNL1        0.1107
     10 C          58.2843   92.9076   -1.8994 C.3     1  UNL1        0.0461
     11 C          58.3165   93.0708   -0.4087 C.3     1  UNL1        0.0956
     12 N          59.4927   93.7302    0.2484 N.pl3   1  UNL1       -0.2791
     13 N          64.0107   95.8183   -1.7448 N.ar    1  UNL1       -0.2648
     14 C          64.5261   95.9407   -3.1481 C.ar    1  UNL1        0.3349
     15 O          65.8550   96.5872   -3.4053 O.2     1  UNL1       -0.2461
     16 C          59.5249   93.8933    1.7392 C.3     1  UNL1        0.0982
     17 C          60.5115   93.1146    2.5577 C.3     1  UNL1        0.0478
     18 C          60.0300   92.2182    3.6598 C.ar    1  UNL1       -0.0203
     19 C          61.0046   91.3535    4.4031 C.ar    1  UNL1       -0.0011
     20 C          60.5231   90.4570    5.5051 C.ar    1  UNL1        0.0366
     21 C          59.0669   90.4253    5.8638 C.ar    1  UNL1        0.1393
     22 C          58.0923   91.2899    5.1205 C.ar    1  UNL1        0.0366
     23 C          58.5739   92.1864    4.0184 C.ar    1  UNL1       -0.0011
     24 O          58.5853   89.5288    6.9658 O.3     1  UNL1       -0.4656
     25 C          59.5183   88.5274    7.5798 C.3     1  UNL1        0.2893
     26 C          60.0965   88.7772    8.9411 C.2     1  UNL1        0.2670
     27 O          59.8482   87.8004   10.0522 O.2     1  UNL1       -0.2711
     28 N          60.9228   90.0037    9.1914 N.am    1  UNL1       -0.3013
     29 H          61.0857   90.6448    8.4622 H       1  UNL1        0.1495
     30 C          61.5010   90.2535   10.5528 C.3     1  UNL1        0.0909
     31 C          62.8068   90.9787   10.6915 C.3     1  UNL1        0.0386
     32 C          63.6406   90.7928   11.9245 C.3     1  UNL1        0.0738
     33 N          64.7574   91.7478   12.2256 N.3     1  UNL1       -0.2726
     34 C          65.2745   91.8789   13.6275 C.3     1  UNL1        0.0721
     35 C          65.0082   90.7949   14.6296 C.3     1  UNL1        0.0188
     36 C          65.3570   92.5717   11.1249 C.3     1  UNL1        0.0721
     37 C          66.0857   93.8417   11.4505 C.3     1  UNL1        0.0188
     38 C          64.2281   95.5388   -5.6976 C.3     1  UNL1        0.1136
     39 C          65.2014   94.5291   -6.2297 C.3     1  UNL1        0.0247
     40 C          64.3767   92.1059   -5.7844 C.3     1  UNL1        0.0001
     41 C          65.3643   93.2078   -5.5384 C.3     1  UNL1        0.0020
     42 C          64.8242   96.3425   -0.5987 C.3     1  UNL1        0.1120
     43 C          65.3127   95.4046    0.4652 C.3     1  UNL1        0.0247
     44 C          64.7608   95.4962    1.8569 C.3     1  UNL1        0.0020
     45 C          65.2668   96.5503    2.7965 C.3     1  UNL1        0.0001
@<TRIPOS>BOND
     1    40    41    1
     2    41    39    1
     3    39    38    1
     4    38     1    1
     5     1     2   ar
     6     2     3    2
     7     2     4   ar
     8     4     5   ar
     9     5     6   ar
    10     6     7   ar
    11     7     8   ar
    12     8     9    1
    13     9    10    1
    14    10    11    1
    15    11    12    1
    16    12    16    1
    17    16    17    1
    18    17    18    1
    19    18    19   ar
    20    19    20   ar
    21    20    21   ar
    22    21    24    1
    23    24    25    1
    24    25    26    1
    25    26    27    2
    26    26    28   am
    27    28    30    1
    28    30    31    1
    29    31    32    1
    30    32    33    1
    31    33    36    1
    32    36    37    1
    33    33    34    1
    34    34    35    1
    35    21    22   ar
    36    22    23   ar
    37     5    13   ar
    38    13    42    1
    39    42    43    1
    40    43    44    1
    41    44    45    1
    42    13    14   ar
    43    14    15    2
    44    14     1   ar
    45     8     4   ar
    46    23    18   ar
    47    12     7    1
    48    28    29    1
@<TRIPOS>MOLECULE
*****
 45 48 0 0 0
SMALL
GASTEIGER

@<TRIPOS>ATOM
      1 N          64.9056   91.3760   13.6452 N.ar    1  UNL1       -0.2475
      2 C          64.8775   90.0378   14.3223 C.ar    1  UNL1        0.2831
      3 O          65.5278   89.8616   15.6626 O.2     1  UNL1       -0.2652
      4 C          64.1993   88.8758   13.6592 C.ar    1  UNL1        0.1536
      5 C          63.5491   89.0520   12.3190 C.ar    1  UNL1        0.1707
      6 N          62.9603   87.7336   11.9126 N.ar    1  UNL1       -0.1958
      7 C          63.2466   86.7426   13.0016 C.ar    1  UNL1        0.2026
      8 N          64.0123   87.4485   14.0811 N.ar    1  UNL1       -0.2945
      9 C          64.4405   86.7005   15.3087 C.3     1  UNL1        0.1107
     10 C          64.1028   85.2465   15.4569 C.3     1  UNL1        0.0461
     11 C          63.3371   84.5406   14.3773 C.3     1  UNL1        0.0956
     12 N          62.9090   85.2887   13.1497 N.pl3   1  UNL1       -0.2791
     13 N          63.5772   90.3902   11.6419 N.ar    1  UNL1       -0.2648
     14 C          64.2554   91.5522   12.3050 C.ar    1  UNL1        0.3349
     15 O          64.2835   92.8904   11.6279 O.2     1  UNL1       -0.2461
     16 C          62.1432   84.5828   12.0702 C.3     1  UNL1        0.0982
     17 C          62.5152   84.7859   10.6314 C.3     1  UNL1        0.0478
     18 C          61.6567   85.6423    9.7485 C.ar    1  UNL1       -0.0203
     19 C          61.7377   85.5000    8.2574 C.ar    1  UNL1       -0.0011
     20 C          60.8792   86.3564    7.3745 C.ar    1  UNL1        0.0366
     21 C          59.9396   87.3551    7.9827 C.ar    1  UNL1        0.1393
     22 C          59.8586   87.4974    9.4737 C.ar    1  UNL1        0.0366
     23 C          60.7171   86.6410   10.3566 C.ar    1  UNL1       -0.0011
     24 O          59.0811   88.2115    7.0998 O.3     1  UNL1       -0.4656
     25 C          59.2875   89.6969    7.0657 C.3     1  UNL1        0.2893
     26 C          58.8186   90.4923    5.8835 C.2     1  UNL1        0.2670
     27 O          57.3650   90.4992    5.5130 O.2     1  UNL1       -0.2711
     28 N          59.8032   91.2808    5.0719 N.am    1  UNL1       -0.3013
     29 H          60.7572   91.2762    5.3150 H       1  UNL1        0.1495
     30 C          59.3344   92.0761    3.8897 C.3     1  UNL1        0.0909
     31 C          60.2576   93.0598    3.2337 C.3     1  UNL1        0.0386
     32 C          61.3389   92.5753    2.3139 C.3     1  UNL1        0.0738
     33 N          61.2688   92.8815    0.8472 N.3     1  UNL1       -0.2726
     34 C          61.9802   94.0819    0.2969 C.3     1  UNL1        0.0721
     35 C          63.4641   94.0409    0.0814 C.3     1  UNL1        0.0188
     36 C          60.4873   91.9873   -0.0692 C.3     1  UNL1        0.0721
     37 C          59.3425   92.5432   -0.8630 C.3     1  UNL1        0.0188
     38 C          65.5839   92.5380   14.3084 C.3     1  UNL1        0.1136
     39 C          66.9691   92.9353   13.8917 C.3     1  UNL1        0.0247
     40 C          68.1053   92.3072   16.1422 C.3     1  UNL1        0.0001
     41 C          68.1570   92.4174   14.6471 C.3     1  UNL1        0.0020
     42 C          62.9270   90.5664   10.3017 C.3     1  UNL1        0.1120
     43 C          61.4330   90.5087   10.1794 C.3     1  UNL1        0.0247
     44 C          60.5871   90.3176   11.4033 C.3     1  UNL1        0.0020
     45 C          59.1560   90.7668   11.4035 C.3     1  UNL1        0.0001
@<TRIPOS>BOND
     1    40    41    1
     2    41    39    1
     3    39    38    1
     4    38     1    1
     5     1     2   ar
     6     2     3    2
     7     2     4   ar
     8     4     5   ar
     9     5     6   ar
    10     6     7   ar
    11     7     8   ar
    12     8     9    1
    13     9    10    1
    14    10    11    1
    15    11    12    1
    16    12    16    1
    17    16    17    1
    18    17    18    1
    19    18    19   ar
    20    19    20   ar
    21    20    21   ar
    22    21    24    1
    23    24    25    1
    24    25    26    1
    25    26    27    2
    26    26    28   am
    27    28    30    1
    28    30    31    1
    29    31    32    1
    30    32    33    1
    31    33    36    1
    32    36    37    1
    33    33    34    1
    34    34    35    1
    35    21    22   ar
    36    22    23   ar
    37     5    13   ar
    38    13    42    1
    39    42    43    1
    40    43    44    1
    41    44    45    1
    42    13    14   ar
    43    14    15    2
    44    14     1   ar
    45     8     4   ar
    46    23    18   ar
    47    12     7    1
    48    28    29    1
@<TRIPOS>MOLECULE
*****
 45 48 0 0 0
SMALL
GASTEIGER

@<TRIPOS>ATOM
      1 N          63.3720   95.5074   -4.3536 N.ar    1  UNL1       -0.2475
      2 C          62.1290   94.8108   -3.8847 C.ar    1  UNL1        0.2831
      3 O          61.0504   94.4597   -4.8663 O.2     1  UNL1       -0.2652
      4 C          61.9646   94.4653   -2.4343 C.ar    1  UNL1        0.1536
      5 C          63.0432   94.8164   -1.4528 C.ar    1  UNL1        0.1707
      6 N          62.6038   94.3527   -0.0957 N.ar    1  UNL1       -0.1958
      7 C          61.2536   93.7151   -0.2384 C.ar    1  UNL1        0.2026
      8 N          60.8586   93.7847   -1.6838 N.ar    1  UNL1       -0.2945
      9 C          59.5428   93.2192   -2.1298 C.3     1  UNL1        0.1107
     10 C          58.6220   92.5842   -1.1304 C.3     1  UNL1        0.0461
     11 C          59.0170   92.5146    0.3150 C.3     1  UNL1        0.0956
     12 N          60.3328   93.0800    0.7610 N.pl3   1  UNL1       -0.2791
     13 N          64.2862   95.5130   -1.9217 N.ar    1  UNL1       -0.2648
     14 C          64.4506   95.8585   -3.3721 C.ar    1  UNL1        0.3349
     15 O          65.6936   96.5551   -3.8409 O.2     1  UNL1       -0.2461
     16 C          60.7278   93.0104    2.2064 C.3     1  UNL1        0.0982
     17 C          59.6957   93.2097    3.2764 C.3     1  UNL1        0.0478
     18 C          59.4159   92.1141    4.2620 C.ar    1  UNL1       -0.0203
     19 C          58.0032   91.8098    4.6641 C.ar    1  UNL1       -0.0011
     20 C          57.7235   90.7142    5.6498 C.ar    1  UNL1        0.0366
     21 C          58.8565   89.9230    6.2332 C.ar    1  UNL1        0.1393
     22 C          60.2691   90.2273    5.8311 C.ar    1  UNL1        0.0366
     23 C          60.5488   91.3229    4.8454 C.ar    1  UNL1       -0.0011
     24 O          58.5768   88.8274    7.2188 O.3     1  UNL1       -0.4656
     25 C          59.3442   87.5405    7.1476 C.3     1  UNL1        0.2893
     26 C          60.2251   87.1283    8.2896 C.2     1  UNL1        0.2670
     27 O          61.2926   86.0958    8.0786 O.2     1  UNL1       -0.2711
     28 N          60.0384   87.7486    9.6425 N.am    1  UNL1       -0.3013
     29 H          59.3378   88.4262    9.7809 H       1  UNL1        0.1495
     30 C          60.9193   87.3364   10.7845 C.3     1  UNL1        0.0909
     31 C          62.2707   87.9651   10.9541 C.3     1  UNL1        0.0386
     32 C          63.0675   87.7062   12.1983 C.3     1  UNL1        0.0738
     33 N          63.4105   88.8398   13.1188 N.3     1  UNL1       -0.2726
     34 C          62.9236   90.2257   12.8154 C.3     1  UNL1        0.0721
     35 C          63.9089   91.3306   12.5734 C.3     1  UNL1        0.0188
     36 C          64.2404   88.5874   14.3425 C.3     1  UNL1        0.0721
     37 C          64.3792   87.1941   14.8804 C.3     1  UNL1        0.0188
     38 C          63.5363   95.8529   -5.8040 C.3     1  UNL1        0.1136
     39 C          64.1322   94.8531   -6.7502 C.3     1  UNL1        0.0247
     40 C          64.9019   92.3749   -6.8786 C.3     1  UNL1        0.0001
     41 C          64.9623   93.7215   -6.2205 C.3     1  UNL1        0.0020
     42 C          65.3648   95.8641   -0.9402 C.3     1  UNL1        0.1120
     43 C          65.0410   96.6991    0.2632 C.3     1  UNL1        0.0247
     44 C          64.9885   96.0672    1.6225 C.3     1  UNL1        0.0020
     45 C          65.3994   96.8539    2.8317 C.3     1  UNL1        0.0001
@<TRIPOS>BOND
     1    40    41    1
     2    41    39    1
     3    39    38    1
     4    38     1    1
     5     1     2   ar
     6     2     3    2
     7     2     4   ar
     8     4     5   ar
     9     5     6   ar
    10     6     7   ar
    11     7     8   ar
    12     8     9    1
    13     9    10    1
    14    10    11    1
    15    11    12    1
    16    12    16    1
    17    16    17    1
    18    17    18    1
    19    18    19   ar
    20    19    20   ar
    21    20    21   ar
    22    21    24    1
    23    24    25    1
    24    25    26    1
    25    26    27    2
    26    26    28   am
    27    28    30    1
    28    30    31    1
    29    31    32    1
    30    32    33    1
    31    33    36    1
    32    36    37    1
    33    33    34    1
    34    34    35    1
    35    21    22   ar
    36    22    23   ar
    37     5    13   ar
    38    13    42    1
    39    42    43    1
    40    43    44    1
    41    44    45    1
    42    13    14   ar
    43    14    15    2
    44    14     1   ar
    45     8     4   ar
    46    23    18   ar
    47    12     7    1
    48    28    29    1
