@<TRIPOS>MOLECULE
*****
 40 45 0 0 0
SMALL
GASTEIGER

@<TRIPOS>ATOM
      1 C          59.0524   89.3829    6.8961 C.ar    1  UNL1        0.2400
      2 N          58.3659   89.4858    5.5664 N.ar    1  UNL1       -0.2090
      3 C          58.8329   90.4926    4.5571 C.ar    1  UNL1        0.1021
      4 C          59.9559   91.5505    4.5527 C.ar    1  UNL1        0.0207
      5 C          59.8911   90.7698    5.8319 C.ar    1  UNL1        0.0221
      6 C          60.2059   90.2866    7.2166 C.ar    1  UNL1        0.1178
      7 N          60.8663   90.1533    8.5568 N.pl3   1  UNL1       -0.2104
      8 S          61.8008   90.3842    9.7072 S.O2    1  UNL1        0.0737
      9 O          60.7954   89.2993    9.9560 O.2     1  UNL1       -0.1499
     10 O          61.9274   89.7436   11.0575 O.2     1  UNL1       -0.1499
     11 C          63.1822   91.1840   10.5932 C.ar    1  UNL1        0.1253
     12 C          63.4037   90.6202   11.9654 C.ar    1  UNL1        0.0202
     13 C          64.5009   91.1641   12.8316 C.ar    1  UNL1        0.0015
     14 C          65.3766   92.2718   12.3255 C.ar    1  UNL1        0.0046
     15 C          65.1551   92.8356   10.9533 C.ar    1  UNL1        0.0547
     16 C          64.0579   92.2918   10.0872 C.ar    1  UNL1        0.0247
     17 C          66.0514   93.9426   10.4831 C.2     1  UNL1        0.2459
     18 O          66.9259   94.0834   11.6937 O.2     1  UNL1       -0.2701
     19 N          66.6599   95.0033    9.6144 N.am    1  UNL1       -0.3009
     20 C          66.9146   95.9027    8.4412 C.3     1  UNL1        0.0898
     21 C          66.7879   96.5434    7.0908 C.3     1  UNL1        0.0230
     22 C          66.2935   96.8559    5.7095 C.3     1  UNL1        0.0232
     23 C          65.4850   96.8064    4.4471 C.3     1  UNL1        0.0922
     24 N          64.4501   96.4003    3.4402 N.pl3   1  UNL1       -0.2932
     25 C          64.9445   96.0877    4.8215 C.3     1  UNL1        0.0922
     26 C          65.7529   96.1372    6.0840 C.3     1  UNL1        0.0232
     27 C          63.3008   95.6814    2.7979 C.ar    1  UNL1        0.1348
     28 N          63.6785   96.6465    1.7135 N.ar    1  UNL1       -0.2090
     29 C          62.9171   96.6581    0.4212 C.ar    1  UNL1        0.2000
     30 N          61.7780   95.7045    0.2132 N.ar    1  UNL1       -0.2239
     31 C          61.4003   94.7394    1.2976 C.ar    1  UNL1        0.0857
     32 C          60.1616   93.6440    1.1754 C.ar    1  UNL1        0.0192
     33 C          59.7012   92.6402    2.1905 C.ar    1  UNL1        0.0016
     34 C          60.3935   92.5441    3.5177 C.ar    1  UNL1        0.0017
     35 C          61.1563   93.6429    2.8389 C.ar    1  UNL1        0.0043
     36 C          62.1617   94.7279    2.5900 C.ar    1  UNL1        0.0493
     37 H          60.3199   89.4269    8.9351 H       1  UNL1        0.1739
     38 H          67.3653   95.3248   10.2213 H       1  UNL1        0.1497
     39 C          59.0423   86.9507    7.8095 C.3     1  UNL1        0.2543
     40 O          58.5854   88.3761    7.9052 O.3     1  UNL1       -0.4553
@<TRIPOS>BOND
     1    39    40    1
     2    40     1    1
     3     1     2   ar
     4     2     3   ar
     5     3     4   ar
     6     4     5   ar
     7     5     6   ar
     8     6     7    1
     9     7     8    1
    10     8     9    2
    11     8    10    2
    12     8    11    1
    13    11    12   ar
    14    12    13   ar
    15    13    14   ar
    16    14    15   ar
    17    15    16   ar
    18    15    17    1
    19    17    18    2
    20    17    19   am
    21    19    20    1
    22    20    21    1
    23    21    22    1
    24    22    23    1
    25    23    24    1
    26    24    25    1
    27    25    26    1
    28    24    27    1
    29    27    28   ar
    30    28    29   ar
    31    29    30   ar
    32    30    31   ar
    33    31    32   ar
    34    32    33   ar
    35    33    34   ar
    36    34    35   ar
    37    35    36   ar
    38     6     1   ar
    39    16    11   ar
    40    26    21    1
    41    36    27   ar
    42    34     4    1
    43    36    31   ar
    44     7    37    1
    45    19    38    1
