@<TRIPOS>MOLECULE
*****
 33 37 0 0 0
SMALL
GASTEIGER

@<TRIPOS>ATOM
      1 C          63.4607   90.0742   13.1738 C.ar    1  UNL1        0.0687
      2 C          63.3171   89.6487   14.6050 C.ar    1  UNL1        0.0163
      3 C          64.0482   90.3900   15.6847 C.ar    1  UNL1        0.0029
      4 C          64.9230   91.5568   15.3333 C.ar    1  UNL1        0.0188
      5 C          65.0666   91.9822   13.9021 C.ar    1  UNL1        0.0801
      6 C          64.3355   91.2409   12.8223 C.ar    1  UNL1        0.1120
      7 N          64.6687   91.8861   11.5098 N.ar    1  UNL1       -0.2256
      8 C          65.6058   93.0261   11.7783 C.ar    1  UNL1        0.1439
      9 N          65.8517   93.0855   13.2569 N.ar    1  UNL1       -0.3094
     10 C          66.7287   94.0746   13.9658 C.3     1  UNL1        0.1319
     11 C          66.1938   93.9454   10.7491 C.ar    1  UNL1        0.0343
     12 C          67.2486   93.4419    9.8090 C.ar    1  UNL1        0.0053
     13 C          67.8365   94.3612    8.7798 C.ar    1  UNL1        0.0297
     14 C          67.3697   95.7839    8.6908 C.ar    1  UNL1        0.1401
     15 F          67.9577   96.7032    7.6616 F       1  UNL1       -0.2042
     16 C          66.3149   96.2874    9.6309 C.ar    1  UNL1        0.0297
     17 C          65.7269   95.3681   10.6601 C.ar    1  UNL1        0.0053
     18 N          62.7296   89.3328   12.0940 N.pl3   1  UNL1       -0.2966
     19 H          62.2294   89.8303   11.4073 H       1  UNL1        0.1537
     20 C          63.5265   85.5753   13.0917 C.ar    1  UNL1        0.2428
     21 N          63.4955   87.0746   13.1252 N.ar    1  UNL1       -0.1954
     22 C          62.7605   87.8335   12.0604 C.ar    1  UNL1        0.1354
     23 C          62.0565   87.0932   10.9621 C.ar    1  UNL1        0.0361
     24 C          62.0874   85.5939   10.9286 C.ar    1  UNL1        0.0252
     25 C          62.8224   84.8349   11.9934 C.ar    1  UNL1        0.1190
     26 N          62.8534   83.3356   11.9599 N.ar    1  UNL1       -0.2826
     27 C          63.3662   82.4893   10.8326 C.ar    1  UNL1        0.1826
     28 N          63.2067   81.0500   11.2238 N.ar    1  UNL1       -0.2280
     29 C          62.5954   81.0068   12.5929 C.ar    1  UNL1        0.0786
     30 C          62.2611   79.7684   13.3705 C.3     1  UNL1        0.0538
     31 C          62.3770   82.4194   13.0478 C.ar    1  UNL1        0.0963
     32 C          63.8131   84.9042   15.5852 C.3     1  UNL1        0.2543
     33 O          64.2615   84.8163   14.1565 O.3     1  UNL1       -0.4551
@<TRIPOS>BOND
     1    32    33    1
     2    33    20    1
     3    20    21   ar
     4    21    22   ar
     5    22    18    1
     6    18     1    1
     7     1     2   ar
     8     2     3   ar
     9     3     4   ar
    10     4     5   ar
    11     5     6   ar
    12     6     7   ar
    13     7     8   ar
    14     8    11    1
    15    11    12   ar
    16    12    13   ar
    17    13    14   ar
    18    14    15    1
    19    14    16   ar
    20    16    17   ar
    21     8     9   ar
    22     9    10    1
    23    22    23   ar
    24    23    24   ar
    25    24    25   ar
    26    25    26    1
    27    26    27   ar
    28    27    28   ar
    29    28    29   ar
    30    29    30    1
    31    29    31   ar
    32    25    20   ar
    33    31    26   ar
    34     6     1   ar
    35    17    11   ar
    36     9     5   ar
    37    18    19    1
@<TRIPOS>MOLECULE
*****
 33 37 0 0 0
SMALL
GASTEIGER

@<TRIPOS>ATOM
      1 C          63.3087   88.6284   14.0109 C.ar    1  UNL1        0.0687
      2 C          63.8910   88.2670   15.3452 C.ar    1  UNL1        0.0163
      3 C          64.2898   86.8493   15.6302 C.ar    1  UNL1        0.0029
      4 C          64.1062   85.7932   14.5810 C.ar    1  UNL1        0.0188
      5 C          63.5239   86.1546   13.2468 C.ar    1  UNL1        0.0801
      6 C          63.1251   87.5723   12.9618 C.ar    1  UNL1        0.1120
      7 N          62.5813   87.6289   11.5649 N.ar    1  UNL1       -0.2256
      8 C          62.6440   86.2463   10.9867 C.ar    1  UNL1        0.1439
      9 N          63.2265   85.3351   12.0262 N.ar    1  UNL1       -0.3094
     10 C          63.4691   83.8629   11.8720 C.3     1  UNL1        0.1319
     11 C          62.2017   85.8452    9.6106 C.ar    1  UNL1        0.0343
     12 C          60.8184   86.1828    9.1392 C.ar    1  UNL1        0.0053
     13 C          60.3762   85.7817    7.7631 C.ar    1  UNL1        0.0297
     14 C          61.3174   85.0429    6.8585 C.ar    1  UNL1        0.1401
     15 F          60.8752   84.6418    5.4824 F       1  UNL1       -0.2042
     16 C          62.7008   84.7053    7.3299 C.ar    1  UNL1        0.0297
     17 C          63.1430   85.1065    8.7059 C.ar    1  UNL1        0.0053
     18 N          62.9100   90.0461   13.7258 N.pl3   1  UNL1       -0.2966
     19 H          62.0643   90.4011   14.0838 H       1  UNL1        0.1537
     20 C          65.8543   92.5008   12.6986 C.ar    1  UNL1        0.2428
     21 N          64.9646   91.6240   13.5290 N.ar    1  UNL1       -0.1954
     22 C          63.7997   90.9229   12.8954 C.ar    1  UNL1        0.1354
     23 C          63.5244   91.0987   11.4313 C.ar    1  UNL1        0.0361
     24 C          64.4142   91.9755   10.6009 C.ar    1  UNL1        0.0252
     25 C          65.5791   92.6765   11.2346 C.ar    1  UNL1        0.1190
     26 N          66.4689   93.5533   10.4041 N.ar    1  UNL1       -0.2826
     27 C          67.7626   93.1437    9.7651 C.ar    1  UNL1        0.1826
     28 N          68.3144   94.3309    9.0330 N.ar    1  UNL1       -0.2280
     29 C          67.3617   95.4743    9.2195 C.ar    1  UNL1        0.0786
     30 C          67.5214   96.8558    8.6573 C.3     1  UNL1        0.0538
     31 C          66.2211   94.9938   10.0669 C.ar    1  UNL1        0.0963
     32 C          66.9782   93.5586   14.7886 C.3     1  UNL1        0.2543
     33 O          67.0193   93.2018   13.3322 O.3     1  UNL1       -0.4551
@<TRIPOS>BOND
     1    32    33    1
     2    33    20    1
     3    20    21   ar
     4    21    22   ar
     5    22    18    1
     6    18     1    1
     7     1     2   ar
     8     2     3   ar
     9     3     4   ar
    10     4     5   ar
    11     5     6   ar
    12     6     7   ar
    13     7     8   ar
    14     8    11    1
    15    11    12   ar
    16    12    13   ar
    17    13    14   ar
    18    14    15    1
    19    14    16   ar
    20    16    17   ar
    21     8     9   ar
    22     9    10    1
    23    22    23   ar
    24    23    24   ar
    25    24    25   ar
    26    25    26    1
    27    26    27   ar
    28    27    28   ar
    29    28    29   ar
    30    29    30    1
    31    29    31   ar
    32    25    20   ar
    33    31    26   ar
    34     6     1   ar
    35    17    11   ar
    36     9     5   ar
    37    18    19    1
@<TRIPOS>MOLECULE
*****
 33 37 0 0 0
SMALL
GASTEIGER

@<TRIPOS>ATOM
      1 C          64.1537   87.5762   14.4803 C.ar    1  UNL1        0.0687
      2 C          64.9148   86.5347   15.2457 C.ar    1  UNL1        0.0163
      3 C          64.9564   85.1199   14.7490 C.ar    1  UNL1        0.0029
      4 C          64.2370   84.7467   13.4868 C.ar    1  UNL1        0.0188
      5 C          63.4760   85.7882   12.7213 C.ar    1  UNL1        0.0801
      6 C          63.4343   87.2030   13.2181 C.ar    1  UNL1        0.1120
      7 N          62.6085   88.0072   12.2582 N.ar    1  UNL1       -0.2256
      8 C          62.1398   87.0894   11.1682 C.ar    1  UNL1        0.1439
      9 N          62.6759   85.7181   11.4545 N.ar    1  UNL1       -0.3094
     10 C          62.4514   84.4918   10.6203 C.3     1  UNL1        0.1319
     11 C          61.2850   87.4753    9.9975 C.ar    1  UNL1        0.0343
     12 C          61.0339   88.9233    9.6971 C.ar    1  UNL1        0.0053
     13 C          60.1792   89.3090    8.5264 C.ar    1  UNL1        0.0297
     14 C          59.5755   88.2468    7.6561 C.ar    1  UNL1        0.1401
     15 F          58.7207   88.6327    6.4854 F       1  UNL1       -0.2042
     16 C          59.8266   86.7989    7.9565 C.ar    1  UNL1        0.0297
     17 C          60.6813   86.4131    9.1272 C.ar    1  UNL1        0.0053
     18 N          64.1121   88.9910   14.9770 N.pl3   1  UNL1       -0.2966
     19 H          63.7559   89.1877   15.8735 H       1  UNL1        0.1537
     20 C          66.4202   91.8882   13.5526 C.ar    1  UNL1        0.2428
     21 N          65.9193   90.7731   14.4219 N.ar    1  UNL1       -0.1954
     22 C          64.6130   90.1061   14.1077 C.ar    1  UNL1        0.1354
     23 C          63.8076   90.5542   12.9242 C.ar    1  UNL1        0.0361
     24 C          64.3086   91.6693   12.0549 C.ar    1  UNL1        0.0252
     25 C          65.6149   92.3363   12.3692 C.ar    1  UNL1        0.1190
     26 N          66.1158   93.4514   11.4999 N.ar    1  UNL1       -0.2826
     27 C          66.2322   94.8935   11.8955 C.ar    1  UNL1        0.1826
     28 N          66.7766   95.6536   10.7225 N.ar    1  UNL1       -0.2280
     29 C          66.9968   94.6811    9.6019 C.ar    1  UNL1        0.0786
     30 C          67.5315   95.0116    8.2400 C.3     1  UNL1        0.0538
     31 C          66.5884   93.3201   10.0824 C.ar    1  UNL1        0.0963
     32 C          67.9076   93.2725   15.1717 C.3     1  UNL1        0.2543
     33 O          67.7265   92.5552   13.8669 O.3     1  UNL1       -0.4551
@<TRIPOS>BOND
     1    32    33    1
     2    33    20    1
     3    20    21   ar
     4    21    22   ar
     5    22    18    1
     6    18     1    1
     7     1     2   ar
     8     2     3   ar
     9     3     4   ar
    10     4     5   ar
    11     5     6   ar
    12     6     7   ar
    13     7     8   ar
    14     8    11    1
    15    11    12   ar
    16    12    13   ar
    17    13    14   ar
    18    14    15    1
    19    14    16   ar
    20    16    17   ar
    21     8     9   ar
    22     9    10    1
    23    22    23   ar
    24    23    24   ar
    25    24    25   ar
    26    25    26    1
    27    26    27   ar
    28    27    28   ar
    29    28    29   ar
    30    29    30    1
    31    29    31   ar
    32    25    20   ar
    33    31    26   ar
    34     6     1   ar
    35    17    11   ar
    36     9     5   ar
    37    18    19    1
@<TRIPOS>MOLECULE
*****
 33 37 0 0 0
SMALL
GASTEIGER

@<TRIPOS>ATOM
      1 C          61.1023   89.3749   11.1895 C.ar    1  UNL1        0.0687
      2 C          60.4975   90.1406   10.0504 C.ar    1  UNL1        0.0163
      3 C          60.3041   89.4767    8.7193 C.ar    1  UNL1        0.0029
      4 C          60.7154   88.0470    8.5275 C.ar    1  UNL1        0.0188
      5 C          61.3201   87.2812    9.6666 C.ar    1  UNL1        0.0801
      6 C          61.5136   87.9452   10.9977 C.ar    1  UNL1        0.1120
      7 N          62.1314   86.9448   11.9293 N.ar    1  UNL1       -0.2256
      8 C          62.3197   85.6626   11.1739 C.ar    1  UNL1        0.1439
      9 N          61.8183   85.8706    9.7755 N.ar    1  UNL1       -0.3094
     10 C          61.8156   84.8475    8.6786 C.3     1  UNL1        0.1319
     11 C          62.9063   84.3950   11.7209 C.ar    1  UNL1        0.0343
     12 C          62.6486   84.0030   13.1456 C.ar    1  UNL1        0.0053
     13 C          63.2353   82.7355   13.6925 C.ar    1  UNL1        0.0297
     14 C          64.0796   81.8600   12.8146 C.ar    1  UNL1        0.1401
     15 F          64.6663   80.5923   13.3616 F       1  UNL1       -0.2042
     16 C          64.3373   82.2520   11.3899 C.ar    1  UNL1        0.0297
     17 C          63.7507   83.5195   10.8430 C.ar    1  UNL1        0.0053
     18 N          61.2958   90.0388   12.5207 N.pl3   1  UNL1       -0.2966
     19 H          60.5335   90.1411   13.1352 H       1  UNL1        0.1537
     20 C          64.7117   92.0577   12.4468 C.ar    1  UNL1        0.2428
     21 N          63.3567   91.5498   12.0520 N.ar    1  UNL1       -0.1954
     22 C          62.6509   90.5467   12.9155 C.ar    1  UNL1        0.1354
     23 C          63.3001   90.0516   14.1739 C.ar    1  UNL1        0.0361
     24 C          64.6551   90.5596   14.5687 C.ar    1  UNL1        0.0252
     25 C          65.3609   91.5627   13.7051 C.ar    1  UNL1        0.1190
     26 N          66.7160   92.0706   14.0999 N.ar    1  UNL1       -0.2826
     27 C          68.0184   91.7023   13.4534 C.ar    1  UNL1        0.1826
     28 N          69.1139   92.4401   14.1644 N.ar    1  UNL1       -0.2280
     29 C          68.4885   93.2645   15.2504 C.ar    1  UNL1        0.0786
     30 C          69.2170   94.1599   16.2082 C.3     1  UNL1        0.0538
     31 C          67.0065   93.0361   15.2105 C.ar    1  UNL1        0.0963
     32 C          66.2763   92.5974   10.4440 C.3     1  UNL1        0.2543
     33 O          65.4175   93.0608   11.5832 O.3     1  UNL1       -0.4551
@<TRIPOS>BOND
     1    32    33    1
     2    33    20    1
     3    20    21   ar
     4    21    22   ar
     5    22    18    1
     6    18     1    1
     7     1     2   ar
     8     2     3   ar
     9     3     4   ar
    10     4     5   ar
    11     5     6   ar
    12     6     7   ar
    13     7     8   ar
    14     8    11    1
    15    11    12   ar
    16    12    13   ar
    17    13    14   ar
    18    14    15    1
    19    14    16   ar
    20    16    17   ar
    21     8     9   ar
    22     9    10    1
    23    22    23   ar
    24    23    24   ar
    25    24    25   ar
    26    25    26    1
    27    26    27   ar
    28    27    28   ar
    29    28    29   ar
    30    29    30    1
    31    29    31   ar
    32    25    20   ar
    33    31    26   ar
    34     6     1   ar
    35    17    11   ar
    36     9     5   ar
    37    18    19    1
@<TRIPOS>MOLECULE
*****
 33 37 0 0 0
SMALL
GASTEIGER

@<TRIPOS>ATOM
      1 C          60.5093   89.3042   10.3803 C.ar    1  UNL1        0.0687
      2 C          59.8226   89.9513    9.2143 C.ar    1  UNL1        0.0163
      3 C          59.6909   89.2111    7.9163 C.ar    1  UNL1        0.0029
      4 C          60.2459   87.8238    7.7844 C.ar    1  UNL1        0.0188
      5 C          60.9327   87.1768    8.9504 C.ar    1  UNL1        0.0801
      6 C          61.0644   87.9170   10.2483 C.ar    1  UNL1        0.1120
      7 N          61.7870   87.0287   11.2173 N.ar    1  UNL1       -0.2256
      8 C          62.1019   85.7395   10.5182 C.ar    1  UNL1        0.1439
      9 N          61.5739   85.8310    9.1171 N.ar    1  UNL1       -0.3094
     10 C          61.6701   84.7641    8.0672 C.3     1  UNL1        0.1319
     11 C          62.8189   84.5649   11.1152 C.ar    1  UNL1        0.0343
     12 C          63.6655   83.6824   10.2467 C.ar    1  UNL1        0.0053
     13 C          64.3825   82.5080   10.8437 C.ar    1  UNL1        0.0297
     14 C          64.2527   82.2159   12.3093 C.ar    1  UNL1        0.1401
     15 F          64.9697   81.0413   12.9063 F       1  UNL1       -0.2042
     16 C          63.4061   83.0984   13.1778 C.ar    1  UNL1        0.0297
     17 C          62.6891   84.2729   12.5808 C.ar    1  UNL1        0.0053
     18 N          60.6411   90.0444   11.6783 N.pl3   1  UNL1       -0.2966
     19 H          59.8379   90.2636   12.2037 H       1  UNL1        0.1537
     20 C          63.7546   90.5534   14.0860 C.ar    1  UNL1        0.2428
     21 N          62.3990   90.1472   13.5885 N.ar    1  UNL1       -0.1954
     22 C          61.9966   90.4506   12.1758 C.ar    1  UNL1        0.1354
     23 C          62.9498   91.1603   11.2604 C.ar    1  UNL1        0.0361
     24 C          64.3054   91.5665   11.7579 C.ar    1  UNL1        0.0252
     25 C          64.7077   91.2630   13.1707 C.ar    1  UNL1        0.1190
     26 N          66.0633   91.6692   13.6682 N.ar    1  UNL1       -0.2826
     27 C          67.2694   91.9405   12.8187 C.ar    1  UNL1        0.1826
     28 N          68.4023   92.3144   13.7280 N.ar    1  UNL1       -0.2280
     29 C          67.8963   92.2742   15.1395 C.ar    1  UNL1        0.0786
     30 C          68.6956   92.5792   16.3717 C.3     1  UNL1        0.0538
     31 C          66.4508   91.8754   15.1025 C.ar    1  UNL1        0.0963
     32 C          63.2092   89.5275   16.4099 C.3     1  UNL1        0.2543
     33 O          64.1569   90.2499   15.4989 O.3     1  UNL1       -0.4551
@<TRIPOS>BOND
     1    32    33    1
     2    33    20    1
     3    20    21   ar
     4    21    22   ar
     5    22    18    1
     6    18     1    1
     7     1     2   ar
     8     2     3   ar
     9     3     4   ar
    10     4     5   ar
    11     5     6   ar
    12     6     7   ar
    13     7     8   ar
    14     8    11    1
    15    11    12   ar
    16    12    13   ar
    17    13    14   ar
    18    14    15    1
    19    14    16   ar
    20    16    17   ar
    21     8     9   ar
    22     9    10    1
    23    22    23   ar
    24    23    24   ar
    25    24    25   ar
    26    25    26    1
    27    26    27   ar
    28    27    28   ar
    29    28    29   ar
    30    29    30    1
    31    29    31   ar
    32    25    20   ar
    33    31    26   ar
    34     6     1   ar
    35    17    11   ar
    36     9     5   ar
    37    18    19    1
@<TRIPOS>MOLECULE
*****
 33 37 0 0 0
SMALL
GASTEIGER

@<TRIPOS>ATOM
      1 C          63.7322   86.0465   15.5656 C.ar    1  UNL1        0.0687
      2 C          63.0373   85.5714   16.8072 C.ar    1  UNL1        0.0163
      3 C          62.5583   86.5638   17.8248 C.ar    1  UNL1        0.0029
      4 C          62.7741   88.0312   17.6010 C.ar    1  UNL1        0.0188
      5 C          63.4690   88.5063   16.3595 C.ar    1  UNL1        0.0801
      6 C          63.9480   87.5139   15.3418 C.ar    1  UNL1        0.1120
      7 N          64.5962   88.2739   14.2226 N.ar    1  UNL1       -0.2256
      8 C          64.5177   89.7359   14.5487 C.ar    1  UNL1        0.1439
      9 N          63.8210   89.8795   15.8693 N.ar    1  UNL1       -0.3094
     10 C          63.5279   91.1698   16.5758 C.3     1  UNL1        0.1319
     11 C          65.0435   90.8574   13.7026 C.ar    1  UNL1        0.0343
     12 C          64.3386   91.2333   12.4331 C.ar    1  UNL1        0.0053
     13 C          64.8644   92.3548   11.5871 C.ar    1  UNL1        0.0297
     14 C          66.0951   93.1004   12.0106 C.ar    1  UNL1        0.1401
     15 F          66.6209   94.2219   11.1646 F       1  UNL1       -0.2042
     16 C          66.8000   92.7245   13.2802 C.ar    1  UNL1        0.0297
     17 C          66.2742   91.6030   14.1261 C.ar    1  UNL1        0.0053
     18 N          64.2112   85.0541   14.5479 N.pl3   1  UNL1       -0.2966
     19 H          64.8875   84.3828   14.7953 H       1  UNL1        0.1537
     20 C          62.3472   86.3154   11.2792 C.ar    1  UNL1        0.2428
     21 N          62.8985   86.2849   12.6739 N.ar    1  UNL1       -0.1954
     22 C          63.6599   85.0847   13.1532 C.ar    1  UNL1        0.1354
     23 C          63.8701   83.9150   12.2378 C.ar    1  UNL1        0.0361
     24 C          63.3187   83.9456   10.8432 C.ar    1  UNL1        0.0252
     25 C          62.5573   85.1458   10.3639 C.ar    1  UNL1        0.1190
     26 N          62.0059   85.1764    8.9692 N.ar    1  UNL1       -0.2826
     27 C          60.7233   85.8265    8.5422 C.ar    1  UNL1        0.1826
     28 N          60.5651   85.6141    7.0657 N.ar    1  UNL1       -0.2280
     29 C          61.7499   84.8328    6.5802 C.ar    1  UNL1        0.0786
     30 C          62.0003   84.3982    5.1666 C.3     1  UNL1        0.0538
     31 C          62.6404   84.5623    7.7566 C.ar    1  UNL1        0.0963
     32 C          62.3161   88.7815   10.4622 C.3     1  UNL1        0.2543
     33 O          61.5857   87.5157   10.7999 O.3     1  UNL1       -0.4551
@<TRIPOS>BOND
     1    32    33    1
     2    33    20    1
     3    20    21   ar
     4    21    22   ar
     5    22    18    1
     6    18     1    1
     7     1     2   ar
     8     2     3   ar
     9     3     4   ar
    10     4     5   ar
    11     5     6   ar
    12     6     7   ar
    13     7     8   ar
    14     8    11    1
    15    11    12   ar
    16    12    13   ar
    17    13    14   ar
    18    14    15    1
    19    14    16   ar
    20    16    17   ar
    21     8     9   ar
    22     9    10    1
    23    22    23   ar
    24    23    24   ar
    25    24    25   ar
    26    25    26    1
    27    26    27   ar
    28    27    28   ar
    29    28    29   ar
    30    29    30    1
    31    29    31   ar
    32    25    20   ar
    33    31    26   ar
    34     6     1   ar
    35    17    11   ar
    36     9     5   ar
    37    18    19    1
@<TRIPOS>MOLECULE
*****
 33 37 0 0 0
SMALL
GASTEIGER

@<TRIPOS>ATOM
      1 C          64.1224   87.5054   14.6002 C.ar    1  UNL1        0.0687
      2 C          64.9745   86.6490   15.4891 C.ar    1  UNL1        0.0163
      3 C          65.1867   85.2017   15.1569 C.ar    1  UNL1        0.0029
      4 C          64.5467   84.6109   13.9357 C.ar    1  UNL1        0.0188
      5 C          63.6946   85.4673   13.0467 C.ar    1  UNL1        0.0801
      6 C          63.4824   86.9146   13.3790 C.ar    1  UNL1        0.1120
      7 N          62.5974   87.5077   12.3229 N.ar    1  UNL1       -0.2256
      8 C          62.2627   86.4270   11.3380 C.ar    1  UNL1        0.1439
      9 N          62.9408   85.1660   11.7854 N.ar    1  UNL1       -0.3094
     10 C          62.8764   83.8369   11.0929 C.3     1  UNL1        0.1319
     11 C          61.4012   86.5803   10.1197 C.ar    1  UNL1        0.0343
     12 C          60.1966   87.4731   10.1605 C.ar    1  UNL1        0.0053
     13 C          59.3351   87.6264    8.9421 C.ar    1  UNL1        0.0297
     14 C          59.6783   86.8869    7.6830 C.ar    1  UNL1        0.1401
     15 F          58.8168   87.0403    6.4646 F       1  UNL1       -0.2042
     16 C          60.8830   85.9941    7.6422 C.ar    1  UNL1        0.0297
     17 C          61.7444   85.8408    8.8606 C.ar    1  UNL1        0.0053
     18 N          63.9101   88.9527   14.9324 N.pl3   1  UNL1       -0.2966
     19 H          63.3773   89.2037   15.7213 H       1  UNL1        0.1537
     20 C          64.5278   91.3601   11.8384 C.ar    1  UNL1        0.2428
     21 N          63.9282   90.2952   12.7081 N.ar    1  UNL1       -0.1954
     22 C          64.5098   90.0176   14.0626 C.ar    1  UNL1        0.1354
     23 C          65.6910   90.8048   14.5474 C.ar    1  UNL1        0.0361
     24 C          66.2907   91.8697   13.6776 C.ar    1  UNL1        0.0252
     25 C          65.7090   92.1473   12.3231 C.ar    1  UNL1        0.1190
     26 N          66.3086   93.2122   11.4533 N.ar    1  UNL1       -0.2826
     27 C          67.2512   92.9881   10.3081 C.ar    1  UNL1        0.1826
     28 N          67.5961   94.3255    9.7230 N.ar    1  UNL1       -0.2280
     29 C          66.8667   95.3762   10.5066 C.ar    1  UNL1        0.0786
     30 C          66.9231   96.8553   10.2635 C.3     1  UNL1        0.0538
     31 C          66.0710   94.6881   11.5759 C.ar    1  UNL1        0.0963
     32 C          62.5883   91.1090   10.1280 C.3     1  UNL1        0.2543
     33 O          63.9462   91.6377   10.4838 O.3     1  UNL1       -0.4551
@<TRIPOS>BOND
     1    32    33    1
     2    33    20    1
     3    20    21   ar
     4    21    22   ar
     5    22    18    1
     6    18     1    1
     7     1     2   ar
     8     2     3   ar
     9     3     4   ar
    10     4     5   ar
    11     5     6   ar
    12     6     7   ar
    13     7     8   ar
    14     8    11    1
    15    11    12   ar
    16    12    13   ar
    17    13    14   ar
    18    14    15    1
    19    14    16   ar
    20    16    17   ar
    21     8     9   ar
    22     9    10    1
    23    22    23   ar
    24    23    24   ar
    25    24    25   ar
    26    25    26    1
    27    26    27   ar
    28    27    28   ar
    29    28    29   ar
    30    29    30    1
    31    29    31   ar
    32    25    20   ar
    33    31    26   ar
    34     6     1   ar
    35    17    11   ar
    36     9     5   ar
    37    18    19    1
@<TRIPOS>MOLECULE
*****
 33 37 0 0 0
SMALL
GASTEIGER

@<TRIPOS>ATOM
      1 C          64.2597   88.3444   14.3655 C.ar    1  UNL1        0.0687
      2 C          64.3810   89.6505   15.0929 C.ar    1  UNL1        0.0163
      3 C          63.7798   90.8938   14.5074 C.ar    1  UNL1        0.0029
      4 C          63.0572   90.8308   13.1944 C.ar    1  UNL1        0.0188
      5 C          62.9359   89.5247   12.4669 C.ar    1  UNL1        0.0801
      6 C          63.5371   88.2815   13.0525 C.ar    1  UNL1        0.1120
      7 N          63.2596   87.1455   12.1130 N.ar    1  UNL1       -0.2256
      8 C          62.4868   87.6867   10.9469 C.ar    1  UNL1        0.1439
      9 N          62.2868   89.1571   11.1656 N.ar    1  UNL1       -0.3094
     10 C          61.5644   90.0952   10.2447 C.3     1  UNL1        0.1319
     11 C          61.9996   86.8962    9.7688 C.ar    1  UNL1        0.0343
     12 C          62.9379   85.9804    9.0402 C.ar    1  UNL1        0.0053
     13 C          62.4506   85.1900    7.8621 C.ar    1  UNL1        0.0297
     14 C          61.0251   85.3154    7.4127 C.ar    1  UNL1        0.1401
     15 F          60.5378   84.5250    6.2346 F       1  UNL1       -0.2042
     16 C          60.0867   86.2312    8.1413 C.ar    1  UNL1        0.0297
     17 C          60.5740   87.0216    9.3193 C.ar    1  UNL1        0.0053
     18 N          64.8610   87.1011   14.9510 N.pl3   1  UNL1       -0.2966
     19 H          65.6932   87.1560   15.4740 H       1  UNL1        0.1537
     20 C          64.0289   83.5170   13.4638 C.ar    1  UNL1        0.2428
     21 N          64.6957   84.8439   13.6752 N.ar    1  UNL1       -0.1954
     22 C          64.1941   85.7742   14.7396 C.ar    1  UNL1        0.1354
     23 C          63.0257   85.3777   15.5926 C.ar    1  UNL1        0.0361
     24 C          62.3589   84.0508   15.3811 C.ar    1  UNL1        0.0252
     25 C          62.8605   83.1204   14.3167 C.ar    1  UNL1        0.1190
     26 N          62.1936   81.7935   14.1053 N.ar    1  UNL1       -0.2826
     27 C          62.8372   80.5642   13.5355 C.ar    1  UNL1        0.1826
     28 N          61.8075   79.4739   13.5046 N.ar    1  UNL1       -0.2280
     29 C          60.5275   80.0294   14.0552 C.ar    1  UNL1        0.0786
     30 C          59.2357   79.2825   14.2078 C.3     1  UNL1        0.0538
     31 C          60.7662   81.4630   14.4264 C.ar    1  UNL1        0.0963
     32 C          64.3013   82.9093   10.9525 C.3     1  UNL1        0.2543
     33 O          64.5305   82.5867   12.3993 O.3     1  UNL1       -0.4551
@<TRIPOS>BOND
     1    32    33    1
     2    33    20    1
     3    20    21   ar
     4    21    22   ar
     5    22    18    1
     6    18     1    1
     7     1     2   ar
     8     2     3   ar
     9     3     4   ar
    10     4     5   ar
    11     5     6   ar
    12     6     7   ar
    13     7     8   ar
    14     8    11    1
    15    11    12   ar
    16    12    13   ar
    17    13    14   ar
    18    14    15    1
    19    14    16   ar
    20    16    17   ar
    21     8     9   ar
    22     9    10    1
    23    22    23   ar
    24    23    24   ar
    25    24    25   ar
    26    25    26    1
    27    26    27   ar
    28    27    28   ar
    29    28    29   ar
    30    29    30    1
    31    29    31   ar
    32    25    20   ar
    33    31    26   ar
    34     6     1   ar
    35    17    11   ar
    36     9     5   ar
    37    18    19    1
@<TRIPOS>MOLECULE
*****
 33 37 0 0 0
SMALL
GASTEIGER

@<TRIPOS>ATOM
      1 C          63.7642   86.0893   15.5975 C.ar    1  UNL1        0.0687
      2 C          63.0695   85.6096   16.8373 C.ar    1  UNL1        0.0163
      3 C          62.5782   86.5988   17.8522 C.ar    1  UNL1        0.0029
      4 C          62.7815   88.0679   17.6271 C.ar    1  UNL1        0.0188
      5 C          63.4761   88.5476   16.3873 C.ar    1  UNL1        0.0801
      6 C          63.9675   87.5584   15.3725 C.ar    1  UNL1        0.1120
      7 N          64.6124   88.3227   14.2545 N.ar    1  UNL1       -0.2256
      8 C          64.5196   89.7844   14.5784 C.ar    1  UNL1        0.1439
      9 N          63.8174   89.9234   15.8965 N.ar    1  UNL1       -0.3094
     10 C          63.5103   91.2119   16.6004 C.3     1  UNL1        0.1319
     11 C          65.0381   90.9096   13.7326 C.ar    1  UNL1        0.0343
     12 C          66.2616   91.6656   14.1583 C.ar    1  UNL1        0.0053
     13 C          66.7800   92.7908   13.3126 C.ar    1  UNL1        0.0297
     14 C          66.0749   93.1598   12.0411 C.ar    1  UNL1        0.1401
     15 F          66.5933   94.2850   11.1954 F       1  UNL1       -0.2042
     16 C          64.8513   92.4037   11.6154 C.ar    1  UNL1        0.0297
     17 C          64.3330   91.2786   12.4612 C.ar    1  UNL1        0.0053
     18 N          64.2556   85.1001   14.5826 N.pl3   1  UNL1       -0.2966
     19 H          64.9380   84.4360   14.8327 H       1  UNL1        0.1537
     20 C          63.3829   83.9762   10.8778 C.ar    1  UNL1        0.2428
     21 N          63.9314   83.9537   12.2738 N.ar    1  UNL1       -0.1954
     22 C          63.7071   85.1226   13.1866 C.ar    1  UNL1        0.1354
     23 C          62.9345   86.3141   12.7035 C.ar    1  UNL1        0.0361
     24 C          62.3860   86.3366   11.3076 C.ar    1  UNL1        0.0252
     25 C          62.6103   85.1676   10.3947 C.ar    1  UNL1        0.1190
     26 N          62.0619   85.1901    8.9987 N.ar    1  UNL1       -0.2826
     27 C          60.7790   85.8357    8.5657 C.ar    1  UNL1        0.1826
     28 N          60.6243   85.6156    7.0900 N.ar    1  UNL1       -0.2280
     29 C          61.8115   84.8339    6.6110 C.ar    1  UNL1        0.0786
     30 C          62.0657   84.3926    5.2001 C.3     1  UNL1        0.0538
     31 C          62.7000   84.5710    7.7907 C.ar    1  UNL1        0.0963
     32 C          63.4308   81.4093   10.4794 C.3     1  UNL1        0.2543
     33 O          63.6072   82.8072    9.9650 O.3     1  UNL1       -0.4551
@<TRIPOS>BOND
     1    32    33    1
     2    33    20    1
     3    20    21   ar
     4    21    22   ar
     5    22    18    1
     6    18     1    1
     7     1     2   ar
     8     2     3   ar
     9     3     4   ar
    10     4     5   ar
    11     5     6   ar
    12     6     7   ar
    13     7     8   ar
    14     8    11    1
    15    11    12   ar
    16    12    13   ar
    17    13    14   ar
    18    14    15    1
    19    14    16   ar
    20    16    17   ar
    21     8     9   ar
    22     9    10    1
    23    22    23   ar
    24    23    24   ar
    25    24    25   ar
    26    25    26    1
    27    26    27   ar
    28    27    28   ar
    29    28    29   ar
    30    29    30    1
    31    29    31   ar
    32    25    20   ar
    33    31    26   ar
    34     6     1   ar
    35    17    11   ar
    36     9     5   ar
    37    18    19    1
