@<TRIPOS>MOLECULE
*****
 40 45 0 0 0
SMALL
GASTEIGER

@<TRIPOS>ATOM
      1 C          62.3634   85.9369   10.9987 C.ar    1  UNL1        0.0568
      2 C          62.6253   84.4622   10.9173 C.ar    1  UNL1        0.1236
      3 N          63.4721   84.0762   12.0937 N.ar    1  UNL1       -0.1610
      4 N          63.7334   85.3123   12.9023 N.ar    1  UNL1       -0.1986
      5 C          64.5068   85.5393   14.1673 C.ar    1  UNL1        0.1363
      6 C          64.5950   86.9164   14.7556 C.ar    1  UNL1        0.0922
      7 C          63.9098   88.0664   14.0789 C.ar    1  UNL1        0.2339
      8 N          63.1363   87.8393   12.8138 N.ar    1  UNL1       -0.1920
      9 C          63.0482   86.4623   12.2255 C.ar    1  UNL1        0.1697
     10 C          59.9749   90.3709    9.7203 C.3     1  UNL1        0.0312
     11 C          60.3637   88.9615    9.3852 C.ar    1  UNL1       -0.0175
     12 C          61.1691   88.1539   10.3595 C.ar    1  UNL1       -0.0040
     13 C          61.5580   86.7444   10.0245 C.ar    1  UNL1        0.0042
     14 C          61.1415   86.1426    8.7152 C.ar    1  UNL1        0.0003
     15 C          60.3360   86.9502    7.7410 C.ar    1  UNL1        0.0042
     16 C          59.9472   88.3596    8.0760 C.ar    1  UNL1        0.0494
     17 C          59.1418   89.1672    7.1017 C.2     1  UNL1        0.2455
     18 O          57.6865   88.8650    6.8996 O.2     1  UNL1       -0.2702
     19 N          59.7917   90.2769    6.3296 N.am    1  UNL1       -0.3025
     20 H          60.7468   90.4752    6.4622 H       1  UNL1        0.1497
     21 C          58.9863   91.0845    5.3553 C.3     1  UNL1        0.0720
     22 C          57.6566   91.5497    4.8401 C.3     1  UNL1        0.0213
     23 C          58.9210   92.0180    4.1830 C.3     1  UNL1        0.0213
     24 N          65.1920   84.3893   14.8441 N.pl3   1  UNL1       -0.3179
     25 H          66.1702   84.2954   14.7851 H       1  UNL1        0.1482
     26 C          64.3867   83.3824   15.6107 C.3     1  UNL1        0.0883
     27 C          63.4845   82.4315   14.8814 C.3     1  UNL1        0.0242
     28 C          61.9994   82.2528   14.7700 C.3     1  UNL1        0.0287
     29 C          62.2086   81.0867   13.8501 C.3     1  UNL1        0.0885
     30 C          62.4179   79.9204   12.9302 C.3     1  UNL1        0.0293
     31 O          60.7235   80.9080   13.7386 O.3     1  UNL1       -0.3867
     32 C          63.6938   81.2652   13.9615 C.3     1  UNL1        0.0287
     33 H          60.2757   81.5806   14.2755 H       1  UNL1        0.2102
     34 O          63.9979   89.4433   14.6671 O.3     1  UNL1       -0.4344
     35 C          64.7582   90.5185   13.9488 C.ar    1  UNL1        0.1663
     36 C          66.1018   90.9528   14.4548 C.ar    1  UNL1        0.0408
     37 C          66.8620   92.0280   13.7365 C.ar    1  UNL1        0.0238
     38 C          66.2787   92.6689   12.5122 C.ar    1  UNL1        0.0991
     39 N          64.9350   92.2346   12.0062 N.ar    1  UNL1       -0.2391
     40 C          64.1748   91.1594   12.7246 C.ar    1  UNL1        0.1363
@<TRIPOS>BOND
     1    10    11    1
     2    11    12   ar
     3    12    13   ar
     4    13     1    1
     5     1     2   ar
     6     2     3   ar
     7     3     4   ar
     8     4     5   ar
     9     5    24    1
    10    24    26    1
    11    27    26    1
    12    27    28    1
    13    28    29    1
    14    29    30    1
    15    29    31    1
    16    29    32    1
    17     5     6   ar
    18     6     7   ar
    19     7    34    1
    20    34    35    1
    21    35    36   ar
    22    36    37   ar
    23    37    38   ar
    24    38    39   ar
    25    39    40   ar
    26     7     8   ar
    27     8     9   ar
    28    13    14   ar
    29    14    15   ar
    30    15    16   ar
    31    16    17    1
    32    17    18    2
    33    17    19   am
    34    19    21    1
    35    21    22    1
    36    22    23    1
    37    16    11   ar
    38    23    21    1
    39     9     1   ar
    40     9     4   ar
    41    32    27    1
    42    40    35   ar
    43    24    25    1
    44    31    33    1
    45    19    20    1
@<TRIPOS>MOLECULE
*****
 40 45 0 0 0
SMALL
GASTEIGER

@<TRIPOS>ATOM
      1 C          62.2349   90.0965   11.2508 C.ar    1  UNL1        0.0568
      2 C          61.0417   90.8951   10.8168 C.ar    1  UNL1        0.1236
      3 N          60.0447   89.9493   10.2156 N.ar    1  UNL1       -0.1610
      4 N          60.6218   88.5661   10.2781 N.ar    1  UNL1       -0.1986
      5 C          60.0895   87.2356    9.8350 C.ar    1  UNL1        0.1363
      6 C          60.9109   85.9959   10.0318 C.ar    1  UNL1        0.0922
      7 C          62.2646   86.0869   10.6716 C.ar    1  UNL1        0.2339
      8 N          62.7968   87.4176   11.1147 N.ar    1  UNL1       -0.1920
      9 C          61.9754   88.6571   10.9179 C.ar    1  UNL1        0.1697
     10 C          66.3198   93.3071   11.1769 C.3     1  UNL1        0.0312
     11 C          65.5132   92.2469   11.8663 C.ar    1  UNL1       -0.0175
     12 C          64.2774   91.7018   11.2139 C.ar    1  UNL1       -0.0040
     13 C          63.4707   90.6416   11.9033 C.ar    1  UNL1        0.0042
     14 C          63.8998   90.1264   13.2451 C.ar    1  UNL1        0.0003
     15 C          65.1357   90.6716   13.8975 C.ar    1  UNL1        0.0042
     16 C          65.9424   91.7318   13.2081 C.ar    1  UNL1        0.0494
     17 C          67.1782   92.2768   13.8606 C.2     1  UNL1        0.2455
     18 O          68.5283   91.9704   13.2834 O.2     1  UNL1       -0.2702
     19 N          67.0638   93.1283   15.0902 N.am    1  UNL1       -0.3025
     20 H          66.1776   93.3294   15.4690 H       1  UNL1        0.1497
     21 C          68.2996   93.6734   15.7426 C.3     1  UNL1        0.0720
     22 C          69.1459   94.8433   16.1490 C.3     1  UNL1        0.0213
     23 C          69.5939   93.4475   16.4664 C.3     1  UNL1        0.0213
     24 N          58.7359   87.1446    9.1952 N.pl3   1  UNL1       -0.3179
     25 H          57.9313   87.0578    9.7558 H       1  UNL1        0.1482
     26 C          58.6082   87.1859    7.7011 C.3     1  UNL1        0.0883
     27 C          58.8716   88.4637    6.9609 C.3     1  UNL1        0.0242
     28 C          60.1019   89.2145    6.5454 C.3     1  UNL1        0.0287
     29 C          59.2442   90.2707    5.9142 C.3     1  UNL1        0.0885
     30 C          58.3863   91.3270    5.2829 C.3     1  UNL1        0.0293
     31 O          60.4744   91.0215    5.4986 O.3     1  UNL1       -0.3867
     32 C          58.0138   89.5200    6.3297 C.3     1  UNL1        0.0287
     33 H          61.2626   90.5394    5.7939 H       1  UNL1        0.2102
     34 O          63.0860   84.8474   10.8684 O.3     1  UNL1       -0.4344
     35 C          62.7926   83.9276   12.0165 C.ar    1  UNL1        0.1663
     36 C          62.6089   82.4590   11.7728 C.ar    1  UNL1        0.0408
     37 C          62.3154   81.5393   12.9208 C.ar    1  UNL1        0.0238
     38 C          62.2057   82.0881   14.3125 C.ar    1  UNL1        0.0991
     39 N          62.3894   83.5567   14.5561 N.ar    1  UNL1       -0.2391
     40 C          62.6828   84.4765   13.4081 C.ar    1  UNL1        0.1363
@<TRIPOS>BOND
     1    10    11    1
     2    11    12   ar
     3    12    13   ar
     4    13     1    1
     5     1     2   ar
     6     2     3   ar
     7     3     4   ar
     8     4     5   ar
     9     5    24    1
    10    24    26    1
    11    27    26    1
    12    27    28    1
    13    28    29    1
    14    29    30    1
    15    29    31    1
    16    29    32    1
    17     5     6   ar
    18     6     7   ar
    19     7    34    1
    20    34    35    1
    21    35    36   ar
    22    36    37   ar
    23    37    38   ar
    24    38    39   ar
    25    39    40   ar
    26     7     8   ar
    27     8     9   ar
    28    13    14   ar
    29    14    15   ar
    30    15    16   ar
    31    16    17    1
    32    17    18    2
    33    17    19   am
    34    19    21    1
    35    21    22    1
    36    22    23    1
    37    16    11   ar
    38    23    21    1
    39     9     1   ar
    40     9     4   ar
    41    32    27    1
    42    40    35   ar
    43    24    25    1
    44    31    33    1
    45    19    20    1
@<TRIPOS>MOLECULE
*****
 40 45 0 0 0
SMALL
GASTEIGER

@<TRIPOS>ATOM
      1 C          61.6495   89.8044   10.6741 C.ar    1  UNL1        0.0568
      2 C          60.4203   90.5399   10.2287 C.ar    1  UNL1        0.1236
      3 N          59.6970   89.6764    9.2382 N.ar    1  UNL1       -0.1610
      4 N          60.4790   88.4073    9.0714 N.ar    1  UNL1       -0.1986
      5 C          60.2482   87.1898    8.2261 C.ar    1  UNL1        0.1363
      6 C          61.2241   86.0514    8.2683 C.ar    1  UNL1        0.0922
      7 C          62.4309   86.1306    9.1557 C.ar    1  UNL1        0.2339
      8 N          62.6616   87.3481   10.0010 N.ar    1  UNL1       -0.1920
      9 C          61.6857   88.4864    9.9588 C.ar    1  UNL1        0.1697
     10 C          63.8333   89.5715   15.3833 C.3     1  UNL1        0.0312
     11 C          63.7561   90.1835   14.0160 C.ar    1  UNL1       -0.0175
     12 C          62.7414   89.6880   13.0286 C.ar    1  UNL1       -0.0040
     13 C          62.6642   90.3000   11.6614 C.ar    1  UNL1        0.0042
     14 C          63.6017   91.4075   11.2813 C.ar    1  UNL1        0.0003
     15 C          64.6165   91.9030   12.2687 C.ar    1  UNL1        0.0042
     16 C          64.6937   91.2910   13.6360 C.ar    1  UNL1        0.0494
     17 C          65.7084   91.7866   14.6233 C.2     1  UNL1        0.2455
     18 O          65.2632   92.3194   15.9529 O.2     1  UNL1       -0.2702
     19 N          67.1684   91.7493   14.2810 N.am    1  UNL1       -0.3025
     20 H          67.4606   91.3995   13.4083 H       1  UNL1        0.1497
     21 C          68.1831   92.2448   15.2683 C.3     1  UNL1        0.0720
     22 C          69.1043   93.3247   15.7531 C.3     1  UNL1        0.0213
     23 C          69.0195   92.0231   16.4936 C.3     1  UNL1        0.0213
     24 N          59.0415   87.1107    7.3387 N.pl3   1  UNL1       -0.3179
     25 H          58.8023   86.2584    6.9078 H       1  UNL1        0.1482
     26 C          58.1990   88.3302    7.1078 C.3     1  UNL1        0.0883
     27 C          58.7371   89.4706    6.2955 C.3     1  UNL1        0.0242
     28 C          60.1043   89.9177    5.8702 C.3     1  UNL1        0.0287
     29 C          59.4981   91.0834    5.1468 C.3     1  UNL1        0.0885
     30 C          58.8919   92.2492    4.4232 C.3     1  UNL1        0.0293
     31 O          60.8653   91.5306    4.7215 O.3     1  UNL1       -0.3867
     32 C          58.1309   90.6364    5.5719 C.3     1  UNL1        0.0287
     33 H          61.5297   90.9162    5.0710 H       1  UNL1        0.2102
     34 O          63.4068   84.9923    9.1979 O.3     1  UNL1       -0.4344
     35 C          63.4950   84.1248   10.4184 C.ar    1  UNL1        0.1663
     36 C          62.6245   84.4104   11.6060 C.ar    1  UNL1        0.0408
     37 C          62.7127   83.5429   12.8266 C.ar    1  UNL1        0.0238
     38 C          63.6714   82.3898   12.8594 C.ar    1  UNL1        0.0991
     39 N          64.5420   82.1042   11.6718 N.ar    1  UNL1       -0.2391
     40 C          64.4537   82.9717   10.4513 C.ar    1  UNL1        0.1363
@<TRIPOS>BOND
     1    10    11    1
     2    11    12   ar
     3    12    13   ar
     4    13     1    1
     5     1     2   ar
     6     2     3   ar
     7     3     4   ar
     8     4     5   ar
     9     5    24    1
    10    24    26    1
    11    27    26    1
    12    27    28    1
    13    28    29    1
    14    29    30    1
    15    29    31    1
    16    29    32    1
    17     5     6   ar
    18     6     7   ar
    19     7    34    1
    20    34    35    1
    21    35    36   ar
    22    36    37   ar
    23    37    38   ar
    24    38    39   ar
    25    39    40   ar
    26     7     8   ar
    27     8     9   ar
    28    13    14   ar
    29    14    15   ar
    30    15    16   ar
    31    16    17    1
    32    17    18    2
    33    17    19   am
    34    19    21    1
    35    21    22    1
    36    22    23    1
    37    16    11   ar
    38    23    21    1
    39     9     1   ar
    40     9     4   ar
    41    32    27    1
    42    40    35   ar
    43    24    25    1
    44    31    33    1
    45    19    20    1
@<TRIPOS>MOLECULE
*****
 40 45 0 0 0
SMALL
GASTEIGER

@<TRIPOS>ATOM
      1 C          64.1073   88.5616   14.2457 C.ar    1  UNL1        0.0568
      2 C          64.1316   88.1466   15.6870 C.ar    1  UNL1        0.1236
      3 N          63.5662   86.7604   15.7797 N.ar    1  UNL1       -0.1610
      4 N          63.1924   86.3186   14.3958 N.ar    1  UNL1       -0.1986
      5 C          62.5907   85.0466   13.8765 C.ar    1  UNL1        0.1363
      6 C          62.3235   84.8877   12.4090 C.ar    1  UNL1        0.0922
      7 C          62.6580   86.0009   11.4609 C.ar    1  UNL1        0.2339
      8 N          63.2597   87.2730   11.9803 N.ar    1  UNL1       -0.1920
      9 C          63.5269   87.4319   13.4477 C.ar    1  UNL1        0.1697
     10 C          63.9855   92.1969   10.5350 C.3     1  UNL1        0.0312
     11 C          64.5195   91.6933   11.8431 C.ar    1  UNL1       -0.0175
     12 C          64.0465   90.3793   12.3904 C.ar    1  UNL1       -0.0040
     13 C          64.5805   89.8757   13.6985 C.ar    1  UNL1        0.0042
     14 C          65.5875   90.6861   14.4594 C.ar    1  UNL1        0.0003
     15 C          66.0606   92.0001   13.9121 C.ar    1  UNL1        0.0042
     16 C          65.5266   92.5038   12.6039 C.ar    1  UNL1        0.0494
     17 C          65.9997   93.8178   12.0567 C.2     1  UNL1        0.2455
     18 O          66.1756   94.9922   12.9731 O.2     1  UNL1       -0.2702
     19 N          66.2970   93.9574   10.5931 N.am    1  UNL1       -0.3025
     20 H          66.1815   93.1866    9.9917 H       1  UNL1        0.1497
     21 C          66.7701   95.2715   10.0459 C.3     1  UNL1        0.0720
     22 C          66.9052   96.7597   10.1755 C.3     1  UNL1        0.0213
     23 C          67.4544   96.0592    8.9683 C.3     1  UNL1        0.0213
     24 N          62.2563   83.9333   14.8246 N.pl3   1  UNL1       -0.3179
     25 H          61.5175   84.0389   15.4667 H       1  UNL1        0.1482
     26 C          63.0475   82.6593   14.7943 C.3     1  UNL1        0.0883
     27 C          63.0010   81.7762   13.5826 C.3     1  UNL1        0.0242
     28 C          62.6294   80.3458   13.3262 C.3     1  UNL1        0.0287
     29 C          62.9354   80.5274   11.8691 C.3     1  UNL1        0.0885
     30 C          63.2414   80.7090   10.4119 C.3     1  UNL1        0.0293
     31 O          62.5637   79.0970   11.6127 O.3     1  UNL1       -0.3867
     32 C          63.3071   81.9578   12.1254 C.3     1  UNL1        0.0287
     33 H          62.2970   78.6779   12.4459 H       1  UNL1        0.2102
     34 O          62.3907   85.8421    9.9935 O.3     1  UNL1       -0.4344
     35 C          61.4011   86.7384    9.3101 C.ar    1  UNL1        0.1663
     36 C          60.4064   86.1610    8.3471 C.ar    1  UNL1        0.0408
     37 C          59.4167   87.0574    7.6637 C.ar    1  UNL1        0.0238
     38 C          59.4217   88.5310    7.9431 C.ar    1  UNL1        0.0991
     39 N          60.4163   89.1084    8.9061 N.ar    1  UNL1       -0.2391
     40 C          61.4060   88.2121    9.5895 C.ar    1  UNL1        0.1363
@<TRIPOS>BOND
     1    10    11    1
     2    11    12   ar
     3    12    13   ar
     4    13     1    1
     5     1     2   ar
     6     2     3   ar
     7     3     4   ar
     8     4     5   ar
     9     5    24    1
    10    24    26    1
    11    27    26    1
    12    27    28    1
    13    28    29    1
    14    29    30    1
    15    29    31    1
    16    29    32    1
    17     5     6   ar
    18     6     7   ar
    19     7    34    1
    20    34    35    1
    21    35    36   ar
    22    36    37   ar
    23    37    38   ar
    24    38    39   ar
    25    39    40   ar
    26     7     8   ar
    27     8     9   ar
    28    13    14   ar
    29    14    15   ar
    30    15    16   ar
    31    16    17    1
    32    17    18    2
    33    17    19   am
    34    19    21    1
    35    21    22    1
    36    22    23    1
    37    16    11   ar
    38    23    21    1
    39     9     1   ar
    40     9     4   ar
    41    32    27    1
    42    40    35   ar
    43    24    25    1
    44    31    33    1
    45    19    20    1
@<TRIPOS>MOLECULE
*****
 40 45 0 0 0
SMALL
GASTEIGER

@<TRIPOS>ATOM
      1 C          63.3701   86.1742   15.3596 C.ar    1  UNL1        0.0568
      2 C          63.4447   86.3934   16.8417 C.ar    1  UNL1        0.1236
      3 N          63.5475   87.8696   17.0872 N.ar    1  UNL1       -0.1610
      4 N          63.5365   88.5627   15.7570 N.ar    1  UNL1       -0.1986
      5 C          63.6121   90.0126   15.3801 C.ar    1  UNL1        0.1363
      6 C          63.5781   90.4147   13.9353 C.ar    1  UNL1        0.0922
      7 C          63.4685   89.3669   12.8676 C.ar    1  UNL1        0.2339
      8 N          63.3929   87.9170   13.2446 N.ar    1  UNL1       -0.1920
      9 C          63.4269   87.5149   14.6893 C.ar    1  UNL1        0.1697
     10 C          64.6443   83.0269   11.4263 C.3     1  UNL1        0.0312
     11 C          63.8955   83.2736   12.7024 C.ar    1  UNL1       -0.0175
     12 C          64.0072   84.6005   13.3930 C.ar    1  UNL1       -0.0040
     13 C          63.2585   84.8473   14.6691 C.ar    1  UNL1        0.0042
     14 C          62.3981   83.7671   15.2548 C.ar    1  UNL1        0.0003
     15 C          62.2864   82.4402   14.5642 C.ar    1  UNL1        0.0042
     16 C          63.0351   82.1934   13.2881 C.ar    1  UNL1        0.0494
     17 C          62.9235   80.8665   12.5976 C.2     1  UNL1        0.2455
     18 O          62.6781   79.6225   13.3989 O.2     1  UNL1       -0.2702
     19 N          63.0571   80.7837   11.1058 N.am    1  UNL1       -0.3025
     20 H          63.2181   81.6002   10.5800 H       1  UNL1        0.1497
     21 C          62.9454   79.4567   10.4154 C.3     1  UNL1        0.0720
     22 C          62.5366   78.0137   10.4326 C.3     1  UNL1        0.0213
     23 C          63.1609   78.6015    9.2020 C.3     1  UNL1        0.0213
     24 N          63.7217   91.0604   16.4478 N.pl3   1  UNL1       -0.3179
     25 H          63.3288   90.9009   17.3363 H       1  UNL1        0.1482
     26 C          64.4301   92.3514   16.1618 C.3     1  UNL1        0.0883
     27 C          65.8612   92.3380   15.7127 C.3     1  UNL1        0.0242
     28 C          66.5727   91.9572   14.4483 C.3     1  UNL1        0.0287
     29 C          67.8852   92.3192   15.0776 C.3     1  UNL1        0.0885
     30 C          69.1978   92.6812   15.7070 C.3     1  UNL1        0.0293
     31 O          68.5966   91.9383   13.8132 O.3     1  UNL1       -0.3867
     32 C          67.1739   92.7001   16.3421 C.3     1  UNL1        0.0287
     33 H          67.9497   91.6355   13.1569 H       1  UNL1        0.2102
     34 O          63.4345   89.7689   11.4229 O.3     1  UNL1       -0.4344
     35 C          62.3345   89.2726   10.5319 C.ar    1  UNL1        0.1663
     36 C          62.4125   87.8967    9.9396 C.ar    1  UNL1        0.0408
     37 C          61.3125   87.4004    9.0486 C.ar    1  UNL1        0.0238
     38 C          60.1347   88.2798    8.7500 C.ar    1  UNL1        0.0991
     39 N          60.0568   89.6557    9.3424 N.ar    1  UNL1       -0.2391
     40 C          61.1567   90.1520   10.2334 C.ar    1  UNL1        0.1363
@<TRIPOS>BOND
     1    10    11    1
     2    11    12   ar
     3    12    13   ar
     4    13     1    1
     5     1     2   ar
     6     2     3   ar
     7     3     4   ar
     8     4     5   ar
     9     5    24    1
    10    24    26    1
    11    27    26    1
    12    27    28    1
    13    28    29    1
    14    29    30    1
    15    29    31    1
    16    29    32    1
    17     5     6   ar
    18     6     7   ar
    19     7    34    1
    20    34    35    1
    21    35    36   ar
    22    36    37   ar
    23    37    38   ar
    24    38    39   ar
    25    39    40   ar
    26     7     8   ar
    27     8     9   ar
    28    13    14   ar
    29    14    15   ar
    30    15    16   ar
    31    16    17    1
    32    17    18    2
    33    17    19   am
    34    19    21    1
    35    21    22    1
    36    22    23    1
    37    16    11   ar
    38    23    21    1
    39     9     1   ar
    40     9     4   ar
    41    32    27    1
    42    40    35   ar
    43    24    25    1
    44    31    33    1
    45    19    20    1
@<TRIPOS>MOLECULE
*****
 40 45 0 0 0
SMALL
GASTEIGER

@<TRIPOS>ATOM
      1 C          63.8531   87.0042   13.5920 C.ar    1  UNL1        0.0568
      2 C          64.5406   87.4544   14.8468 C.ar    1  UNL1        0.1236
      3 N          64.5762   88.9540   14.8432 N.ar    1  UNL1       -0.1610
      4 N          63.9107   89.4305   13.5862 N.ar    1  UNL1       -0.1986
      5 C          63.6539   90.8060   13.0459 C.ar    1  UNL1        0.1363
      6 C          62.9501   90.9765   11.7322 C.ar    1  UNL1        0.0922
      7 C          62.5032   89.7714   10.9589 C.ar    1  UNL1        0.2339
      8 N          62.7600   88.3959   11.4993 N.ar    1  UNL1       -0.1920
      9 C          63.4637   88.2254   12.8129 C.ar    1  UNL1        0.1697
     10 C          64.3859   81.9111   14.4734 C.3     1  UNL1        0.0312
     11 C          63.8658   83.0356   13.6280 C.ar    1  UNL1       -0.0175
     12 C          64.1194   84.4576   14.0326 C.ar    1  UNL1       -0.0040
     13 C          63.5994   85.5822   13.1872 C.ar    1  UNL1        0.0042
     14 C          62.8256   85.2849   11.9371 C.ar    1  UNL1        0.0003
     15 C          62.5719   83.8630   11.5324 C.ar    1  UNL1        0.0042
     16 C          63.0920   82.7383   12.3778 C.ar    1  UNL1        0.0494
     17 C          62.8383   81.3164   11.9731 C.2     1  UNL1        0.2455
     18 O          62.1586   80.3760   12.9237 O.2     1  UNL1       -0.2702
     19 N          63.2643   80.8350   10.6178 N.am    1  UNL1       -0.3025
     20 H          63.7103   81.4523    9.9940 H       1  UNL1        0.1497
     21 C          63.0105   79.4131   10.2131 C.3     1  UNL1        0.0720
     22 C          62.4820   78.0461   10.5324 C.3     1  UNL1        0.0213
     23 C          63.0997   78.3172    9.1927 C.3     1  UNL1        0.0213
     24 N          64.1008   92.0111   13.8193 N.pl3   1  UNL1       -0.3179
     25 H          63.4729   92.4687   14.4238 H       1  UNL1        0.1482
     26 C          65.5045   92.5189   13.6714 C.3     1  UNL1        0.0883
     27 C          66.0648   92.7883   12.3063 C.3     1  UNL1        0.0242
     28 C          65.7171   93.7179   11.1816 C.3     1  UNL1        0.0287
     29 C          66.8570   93.1692   10.3757 C.3     1  UNL1        0.0885
     30 C          67.9970   92.6206    9.5698 C.3     1  UNL1        0.0293
     31 O          66.5094   94.0988    9.2510 O.3     1  UNL1       -0.3867
     32 C          67.2047   92.2396   11.5003 C.3     1  UNL1        0.0287
     33 H          65.7394   94.6338    9.4999 H       1  UNL1        0.2102
     34 O          61.7995   89.9419    9.6453 O.3     1  UNL1       -0.4344
     35 C          61.0386   88.7956    9.0478 C.ar    1  UNL1        0.1663
     36 C          61.5211   87.3895    9.2479 C.ar    1  UNL1        0.0408
     37 C          60.7602   86.2432    8.6504 C.ar    1  UNL1        0.0238
     38 C          59.5167   86.5030    7.8528 C.ar    1  UNL1        0.0991
     39 N          59.0342   87.9090    7.6526 N.ar    1  UNL1       -0.2391
     40 C          59.7951   89.0553    8.2501 C.ar    1  UNL1        0.1363
@<TRIPOS>BOND
     1    10    11    1
     2    11    12   ar
     3    12    13   ar
     4    13     1    1
     5     1     2   ar
     6     2     3   ar
     7     3     4   ar
     8     4     5   ar
     9     5    24    1
    10    24    26    1
    11    27    26    1
    12    27    28    1
    13    28    29    1
    14    29    30    1
    15    29    31    1
    16    29    32    1
    17     5     6   ar
    18     6     7   ar
    19     7    34    1
    20    34    35    1
    21    35    36   ar
    22    36    37   ar
    23    37    38   ar
    24    38    39   ar
    25    39    40   ar
    26     7     8   ar
    27     8     9   ar
    28    13    14   ar
    29    14    15   ar
    30    15    16   ar
    31    16    17    1
    32    17    18    2
    33    17    19   am
    34    19    21    1
    35    21    22    1
    36    22    23    1
    37    16    11   ar
    38    23    21    1
    39     9     1   ar
    40     9     4   ar
    41    32    27    1
    42    40    35   ar
    43    24    25    1
    44    31    33    1
    45    19    20    1
@<TRIPOS>MOLECULE
*****
 40 45 0 0 0
SMALL
GASTEIGER

@<TRIPOS>ATOM
      1 C          62.8556   90.2345   11.6007 C.ar    1  UNL1        0.0568
      2 C          61.8153   90.9704   10.8094 C.ar    1  UNL1        0.1236
      3 N          60.7835   89.9771   10.3637 N.ar    1  UNL1       -0.1610
      4 N          61.1861   88.6274   10.8796 N.ar    1  UNL1       -0.1986
      5 C          60.5520   87.2740   10.7519 C.ar    1  UNL1        0.1363
      6 C          61.1986   86.0797   11.3888 C.ar    1  UNL1        0.0922
      7 C          62.4792   86.2388   12.1534 C.ar    1  UNL1        0.2339
      8 N          63.1133   87.5922   12.2810 N.ar    1  UNL1       -0.1920
      9 C          62.4667   88.7865   11.6441 C.ar    1  UNL1        0.1697
     10 C          66.8494   93.5537   11.4178 C.3     1  UNL1        0.0312
     11 C          66.0683   92.5000   12.1456 C.ar    1  UNL1       -0.0175
     12 C          64.8525   91.8941   11.5093 C.ar    1  UNL1       -0.0040
     13 C          64.0714   90.8404   12.2370 C.ar    1  UNL1        0.0042
     14 C          64.5061   90.3925   13.6010 C.ar    1  UNL1        0.0003
     15 C          65.7219   90.9983   14.2372 C.ar    1  UNL1        0.0042
     16 C          66.5030   92.0521   13.5095 C.ar    1  UNL1        0.0494
     17 C          67.7188   92.6579   14.1458 C.2     1  UNL1        0.2455
     18 O          69.0875   92.2393   13.6971 O.2     1  UNL1       -0.2702
     19 N          67.5659   93.6823   15.2308 N.am    1  UNL1       -0.3025
     20 H          66.6675   93.9570   15.5253 H       1  UNL1        0.1497
     21 C          68.7816   94.2881   15.8671 C.3     1  UNL1        0.0720
     22 C          69.5177   95.4912   16.3776 C.3     1  UNL1        0.0213
     23 C          70.1515   94.1342   16.4586 C.3     1  UNL1        0.0213
     24 N          59.2713   87.1149    9.9874 N.pl3   1  UNL1       -0.3179
     25 H          58.4187   87.0180   10.4700 H       1  UNL1        0.1482
     26 C          59.2897   87.1034    8.4875 C.3     1  UNL1        0.0883
     27 C          60.2177   86.1795    7.7559 C.3     1  UNL1        0.0242
     28 C          60.0765   85.2250    6.6074 C.3     1  UNL1        0.0287
     29 C          61.5301   84.8729    6.7213 C.3     1  UNL1        0.0885
     30 C          62.9838   84.5208    6.8351 C.3     1  UNL1        0.0293
     31 O          61.3889   83.9185    5.5728 O.3     1  UNL1       -0.3867
     32 C          61.6714   85.8274    7.8698 C.3     1  UNL1        0.0287
     33 H          60.4722   83.9274    5.2558 H       1  UNL1        0.2102
     34 O          63.1258   85.0446   12.7903 O.3     1  UNL1       -0.4344
     35 C          63.2670   83.7668   12.0174 C.ar    1  UNL1        0.1663
     36 C          62.5896   82.5189   12.5011 C.ar    1  UNL1        0.0408
     37 C          62.7307   81.2411   11.7283 C.ar    1  UNL1        0.0238
     38 C          63.5492   81.2112   10.4716 C.ar    1  UNL1        0.0991
     39 N          64.2266   82.4590    9.9879 N.ar    1  UNL1       -0.2391
     40 C          64.0855   83.7368   10.7608 C.ar    1  UNL1        0.1363
@<TRIPOS>BOND
     1    10    11    1
     2    11    12   ar
     3    12    13   ar
     4    13     1    1
     5     1     2   ar
     6     2     3   ar
     7     3     4   ar
     8     4     5   ar
     9     5    24    1
    10    24    26    1
    11    27    26    1
    12    27    28    1
    13    28    29    1
    14    29    30    1
    15    29    31    1
    16    29    32    1
    17     5     6   ar
    18     6     7   ar
    19     7    34    1
    20    34    35    1
    21    35    36   ar
    22    36    37   ar
    23    37    38   ar
    24    38    39   ar
    25    39    40   ar
    26     7     8   ar
    27     8     9   ar
    28    13    14   ar
    29    14    15   ar
    30    15    16   ar
    31    16    17    1
    32    17    18    2
    33    17    19   am
    34    19    21    1
    35    21    22    1
    36    22    23    1
    37    16    11   ar
    38    23    21    1
    39     9     1   ar
    40     9     4   ar
    41    32    27    1
    42    40    35   ar
    43    24    25    1
    44    31    33    1
    45    19    20    1
@<TRIPOS>MOLECULE
*****
 40 45 0 0 0
SMALL
GASTEIGER

@<TRIPOS>ATOM
      1 C          63.0935   90.1198   12.2015 C.ar    1  UNL1        0.0568
      2 C          63.4727   91.5501   11.9553 C.ar    1  UNL1        0.1236
      3 N          63.9071   92.1458   13.2615 N.ar    1  UNL1       -0.1610
      4 N          63.7964   91.0838   14.3150 N.ar    1  UNL1       -0.1986
      5 C          64.0885   91.0952   15.7862 C.ar    1  UNL1        0.1363
      6 C          63.8777   89.8543   16.6024 C.ar    1  UNL1        0.0922
      7 C          63.3748   88.6022   15.9472 C.ar    1  UNL1        0.2339
      8 N          63.0827   88.5909   14.4759 N.ar    1  UNL1       -0.1920
      9 C          63.2935   89.8317   13.6599 C.ar    1  UNL1        0.1697
     10 C          62.4052   85.2265   10.5949 C.3     1  UNL1        0.0312
     11 C          62.2566   86.7016   10.3670 C.ar    1  UNL1       -0.0175
     12 C          62.7493   87.6732   11.3981 C.ar    1  UNL1       -0.0040
     13 C          62.6007   89.1483   11.1703 C.ar    1  UNL1        0.0042
     14 C          61.9594   89.6519    9.9113 C.ar    1  UNL1        0.0003
     15 C          61.4667   88.6803    8.8801 C.ar    1  UNL1        0.0042
     16 C          61.6152   87.2051    9.1080 C.ar    1  UNL1        0.0494
     17 C          61.1225   86.2336    8.0768 C.2     1  UNL1        0.2455
     18 O          59.6500   86.0052    7.9048 O.2     1  UNL1       -0.2702
     19 N          62.1022   85.4906    7.2177 N.am    1  UNL1       -0.3025
     20 H          63.0686   85.6405    7.3306 H       1  UNL1        0.1497
     21 C          61.6094   84.5190    6.1865 C.3     1  UNL1        0.0720
     22 C          60.6769   83.4161    5.7815 C.3     1  UNL1        0.0213
     23 C          61.6885   83.9392    4.8054 C.3     1  UNL1        0.0213
     24 N          64.5913   92.3473   16.4414 N.pl3   1  UNL1       -0.3179
     25 H          63.9620   93.0675   16.6751 H       1  UNL1        0.1482
     26 C          66.0530   92.5022   16.7406 C.3     1  UNL1        0.0883
     27 C          67.0642   92.3403   15.6445 C.3     1  UNL1        0.0242
     28 C          68.5402   92.5763   15.5197 C.3     1  UNL1        0.0287
     29 C          68.4941   92.1113   14.0944 C.3     1  UNL1        0.0885
     30 C          68.4480   91.6462   12.6690 C.3     1  UNL1        0.0293
     31 O          69.9701   92.3473   13.9696 O.3     1  UNL1       -0.3867
     32 C          67.0181   91.8752   14.2191 C.3     1  UNL1        0.0287
     33 H          70.3164   92.6818   14.8117 H       1  UNL1        0.2102
     34 O          63.1641   87.3614   16.7632 O.3     1  UNL1       -0.4344
     35 C          63.3608   86.0113   16.1399 C.ar    1  UNL1        0.1663
     36 C          64.5870   85.7347   15.3214 C.ar    1  UNL1        0.0408
     37 C          64.7838   84.3846   14.6981 C.ar    1  UNL1        0.0238
     38 C          63.7544   83.3112   14.8932 C.ar    1  UNL1        0.0991
     39 N          62.5283   83.5878   15.7116 N.ar    1  UNL1       -0.2391
     40 C          62.3315   84.9379   16.3350 C.ar    1  UNL1        0.1363
@<TRIPOS>BOND
     1    10    11    1
     2    11    12   ar
     3    12    13   ar
     4    13     1    1
     5     1     2   ar
     6     2     3   ar
     7     3     4   ar
     8     4     5   ar
     9     5    24    1
    10    24    26    1
    11    27    26    1
    12    27    28    1
    13    28    29    1
    14    29    30    1
    15    29    31    1
    16    29    32    1
    17     5     6   ar
    18     6     7   ar
    19     7    34    1
    20    34    35    1
    21    35    36   ar
    22    36    37   ar
    23    37    38   ar
    24    38    39   ar
    25    39    40   ar
    26     7     8   ar
    27     8     9   ar
    28    13    14   ar
    29    14    15   ar
    30    15    16   ar
    31    16    17    1
    32    17    18    2
    33    17    19   am
    34    19    21    1
    35    21    22    1
    36    22    23    1
    37    16    11   ar
    38    23    21    1
    39     9     1   ar
    40     9     4   ar
    41    32    27    1
    42    40    35   ar
    43    24    25    1
    44    31    33    1
    45    19    20    1
@<TRIPOS>MOLECULE
*****
 40 45 0 0 0
SMALL
GASTEIGER

@<TRIPOS>ATOM
      1 C          64.1063   87.5084   14.4979 C.ar    1  UNL1        0.0568
      2 C          64.3471   86.8968   15.8462 C.ar    1  UNL1        0.1236
      3 N          63.8522   85.4813   15.8082 N.ar    1  UNL1       -0.1610
      4 N          63.3056   85.2181   14.4363 N.ar    1  UNL1       -0.1986
      5 C          62.6852   83.9995   13.8200 C.ar    1  UNL1        0.1363
      6 C          62.2217   84.0336   12.3937 C.ar    1  UNL1        0.0922
      7 C          62.3787   85.2865   11.5839 C.ar    1  UNL1        0.2339
      8 N          62.9992   86.5051   12.2004 N.ar    1  UNL1       -0.1920
      9 C          63.4626   86.4709   13.6266 C.ar    1  UNL1        0.1697
     10 C          63.5530   91.5099   11.2296 C.3     1  UNL1        0.0312
     11 C          64.1723   90.9121   12.4580 C.ar    1  UNL1       -0.0175
     12 C          63.8297   89.5092   12.8638 C.ar    1  UNL1       -0.0040
     13 C          64.4490   88.9112   14.0922 C.ar    1  UNL1        0.0042
     14 C          65.4111   89.7161   14.9147 C.ar    1  UNL1        0.0003
     15 C          65.7537   91.1189   14.5089 C.ar    1  UNL1        0.0042
     16 C          65.1344   91.7169   13.2806 C.ar    1  UNL1        0.0494
     17 C          65.4771   93.1197   12.8748 C.2     1  UNL1        0.2455
     18 O          65.9141   94.1141   13.9093 O.2     1  UNL1       -0.2702
     19 N          65.3828   93.5282   11.4346 N.am    1  UNL1       -0.3025
     20 H          65.0960   92.8755   10.7556 H       1  UNL1        0.1497
     21 C          65.7255   94.9310   11.0288 C.3     1  UNL1        0.0720
     22 C          66.6027   96.1414   11.1522 C.3     1  UNL1        0.0213
     23 C          65.4418   96.1503   10.2025 C.3     1  UNL1        0.0213
     24 N          62.5281   82.7466   14.6298 N.pl3   1  UNL1       -0.3179
     25 H          62.9901   82.6584   15.4947 H       1  UNL1        0.1482
     26 C          61.6672   81.6282   14.1217 C.3     1  UNL1        0.0883
     27 C          62.1042   80.8266   12.9316 C.3     1  UNL1        0.0242
     28 C          62.2982   79.3662   12.6496 C.3     1  UNL1        0.0287
     29 C          62.7221   79.6930   11.2484 C.3     1  UNL1        0.0885
     30 C          63.1461   80.0198    9.8471 C.3     1  UNL1        0.0293
     31 O          62.9161   78.2325   10.9664 O.3     1  UNL1       -0.3867
     32 C          62.5281   81.1534   11.5303 C.3     1  UNL1        0.0287
     33 H          62.6994   77.7185   11.7600 H       1  UNL1        0.2102
     34 O          61.9153   85.3207   10.1577 O.3     1  UNL1       -0.4344
     35 C          61.3492   86.5853    9.5832 C.ar    1  UNL1        0.1663
     36 C          61.8149   87.9160   10.0954 C.ar    1  UNL1        0.0408
     37 C          61.2488   89.1807    9.5208 C.ar    1  UNL1        0.0238
     38 C          60.2170   89.1147    8.4341 C.ar    1  UNL1        0.0991
     39 N          59.7514   87.7840    7.9219 N.ar    1  UNL1       -0.2391
     40 C          60.3175   86.5194    8.4965 C.ar    1  UNL1        0.1363
@<TRIPOS>BOND
     1    10    11    1
     2    11    12   ar
     3    12    13   ar
     4    13     1    1
     5     1     2   ar
     6     2     3   ar
     7     3     4   ar
     8     4     5   ar
     9     5    24    1
    10    24    26    1
    11    27    26    1
    12    27    28    1
    13    28    29    1
    14    29    30    1
    15    29    31    1
    16    29    32    1
    17     5     6   ar
    18     6     7   ar
    19     7    34    1
    20    34    35    1
    21    35    36   ar
    22    36    37   ar
    23    37    38   ar
    24    38    39   ar
    25    39    40   ar
    26     7     8   ar
    27     8     9   ar
    28    13    14   ar
    29    14    15   ar
    30    15    16   ar
    31    16    17    1
    32    17    18    2
    33    17    19   am
    34    19    21    1
    35    21    22    1
    36    22    23    1
    37    16    11   ar
    38    23    21    1
    39     9     1   ar
    40     9     4   ar
    41    32    27    1
    42    40    35   ar
    43    24    25    1
    44    31    33    1
    45    19    20    1
