@<TRIPOS>MOLECULE
*****
 36 39 0 0 0
SMALL
GASTEIGER

@<TRIPOS>ATOM
      1 C          60.3082   86.8558    7.9948 C.3     1  UNL1        0.0795
      2 C          59.5351   87.6036    6.9494 C.3     1  UNL1        0.0178
      3 C          59.2839   89.0736    7.1105 C.3     1  UNL1        0.0029
      4 C          59.8058   89.7958    8.3171 C.3     1  UNL1        0.0178
      5 C          60.5789   89.0480    9.3626 C.3     1  UNL1        0.0799
      6 N          60.8301   87.5780    9.2014 N.3     1  UNL1       -0.1583
      7 C          61.1009   89.7702   10.5693 C.3     1  UNL1        0.0240
      8 C          61.1230   90.4380   11.9123 C.3     1  UNL1        0.0019
      9 C          59.8429   89.8644   11.3809 C.3     1  UNL1        0.0019
     10 C          62.5401   89.9268   10.1767 C.3     1  UNL1        0.0894
     11 C          63.4765   90.7035   11.0542 C.ar    1  UNL1        0.2364
     12 N          64.2512   91.9241   10.6542 N.ar    1  UNL1       -0.1934
     13 C          65.0562   92.3709   11.8384 C.ar    1  UNL1        0.1966
     14 N          64.7790   91.4264   12.9703 N.ar    1  UNL1       -0.0592
     15 O          63.8027   90.3959   12.4856 O.2     1  UNL1       -0.3373
     16 C          65.9767   93.5544   11.8829 C.3     1  UNL1        0.1424
     17 N          66.8989   93.8310   10.7327 N.3     1  UNL1       -0.2652
     18 C          67.7271   92.7233   10.1522 C.3     1  UNL1        0.0900
     19 C          66.9929   95.2155   10.1630 C.3     1  UNL1        0.0729
     20 C          66.2091   95.7473   11.3262 C.3     1  UNL1        0.0186
     21 C          67.7767   94.6837    8.9999 C.3     1  UNL1        0.0186
     22 C          67.0869   96.5999    9.5934 C.3     1  UNL1        0.1516
     23 O          67.9242   96.8544    8.3752 O.3     1  UNL1       -0.3806
     24 H          68.8584   96.7025    8.5874 H       1  UNL1        0.2105
     25 S          61.6033   86.8302   10.2470 S.O2    1  UNL1        0.0632
     26 O          62.8036   86.8138    9.3476 O.2     1  UNL1       -0.1528
     27 O          60.7234   86.6817   11.2600 O.2     1  UNL1       -0.1528
     28 C          62.3764   86.0824   11.2925 C.ar    1  UNL1        0.1222
     29 C          62.5383   84.5950   11.1850 C.ar    1  UNL1        0.0208
     30 C          63.3114   83.8472   12.2305 C.ar    1  UNL1        0.0128
     31 C          63.9228   84.5868   13.3834 C.ar    1  UNL1        0.0578
     32 CL         64.6959   83.8390   14.4289 Cl      1  UNL1       -0.0822
     33 C          63.7609   86.0741   13.4909 C.ar    1  UNL1        0.0128
     34 C          62.9877   86.8220   12.4454 C.ar    1  UNL1        0.0208
     35 C          61.4174   84.8905    6.7074 C.3     1  UNL1        0.0015
     36 C          60.5594   85.3857    7.8337 C.3     1  UNL1        0.0177
@<TRIPOS>BOND
     1    35    36    1
     2     1    36    1
     3     1     2    1
     4     2     3    1
     5     3     4    1
     6     4     5    1
     7     5     7    1
     8     7    10    1
     9    10    11    1
    10    11    12   ar
    11    12    13   ar
    12    13    16    1
    13    16    17    1
    14    17    18    1
    15    17    19    1
    16    19    20    1
    17    19    21    1
    18    19    22    1
    19    22    23    1
    20    13    14   ar
    21    14    15   ar
    22     7     8    1
    23     8     9    1
    24     5     6    1
    25     6    25    1
    26    25    26    2
    27    25    27    2
    28    25    28    1
    29    28    29   ar
    30    29    30   ar
    31    30    31   ar
    32    31    32    1
    33    31    33   ar
    34    33    34   ar
    35     6     1    1
    36    34    28   ar
    37     9     7    1
    38    15    11   ar
    39    23    24    1
@<TRIPOS>MOLECULE
*****
 36 39 0 0 0
SMALL
GASTEIGER

@<TRIPOS>ATOM
      1 C          65.5930   91.8773   12.7761 C.3     1  UNL1        0.0795
      2 C          65.9107   92.8237   11.6566 C.3     1  UNL1        0.0178
      3 C          65.0179   92.8884   10.4530 C.3     1  UNL1        0.0029
      4 C          63.8073   92.0068   10.3689 C.3     1  UNL1        0.0178
      5 C          63.4895   91.0604   11.4884 C.3     1  UNL1        0.0799
      6 N          64.3823   90.9957   12.6920 N.3     1  UNL1       -0.1583
      7 C          62.2788   90.1787   11.4044 C.3     1  UNL1        0.0240
      8 C          60.9008   89.6477   11.6673 C.3     1  UNL1        0.0019
      9 C          61.3764   90.8823   12.3743 C.3     1  UNL1        0.0019
     10 C          62.7609   89.1690   10.4054 C.3     1  UNL1        0.0894
     11 C          62.3783   87.7261   10.5531 C.ar    1  UNL1        0.2364
     12 N          62.8131   86.8071   11.6560 N.ar    1  UNL1       -0.1934
     13 C          62.1973   85.4620   11.4084 C.ar    1  UNL1        0.1966
     14 N          61.3820   85.5496   10.1523 N.ar    1  UNL1       -0.0592
     15 O          61.4939   86.9490    9.6237 O.2     1  UNL1       -0.3373
     16 C          62.3670   84.2432   12.2661 C.3     1  UNL1        0.1424
     17 N          63.1210   83.0567   11.7427 N.3     1  UNL1       -0.2652
     18 C          64.0630   83.2171   10.5866 C.3     1  UNL1        0.0900
     19 C          62.9328   81.7099   12.3755 C.3     1  UNL1        0.0729
     20 C          63.0363   81.0617   11.0268 C.3     1  UNL1        0.0186
     21 C          62.8293   82.3580   13.7243 C.3     1  UNL1        0.0186
     22 C          62.7446   80.3630   13.0083 C.3     1  UNL1        0.1516
     23 O          63.1800   80.1325   14.4251 O.3     1  UNL1       -0.3806
     24 H          64.1456   80.2052   14.4825 H       1  UNL1        0.2105
     25 S          64.0645   90.0493   13.8116 S.O2    1  UNL1        0.0632
     26 O          63.5245   91.1899   14.6224 O.2     1  UNL1       -0.1528
     27 O          64.4669   88.8472   13.3473 O.2     1  UNL1       -0.1528
     28 C          63.7467   89.1030   14.9312 C.ar    1  UNL1        0.1222
     29 C          63.1106   89.6160   16.1891 C.ar    1  UNL1        0.0208
     30 C          62.7928   88.6696   17.3086 C.ar    1  UNL1        0.0128
     31 C          63.1110   87.2103   17.1703 C.ar    1  UNL1        0.0578
     32 CL         62.7932   86.2640   18.2899 Cl      1  UNL1       -0.0822
     33 C          63.7470   86.6973   15.9125 C.ar    1  UNL1        0.0128
     34 C          64.0649   87.6437   14.7928 C.ar    1  UNL1        0.0208
     35 C          66.5893   92.9918   14.9010 C.3     1  UNL1        0.0015
     36 C          66.4858   91.8126   13.9797 C.3     1  UNL1        0.0177
@<TRIPOS>BOND
     1    35    36    1
     2     1    36    1
     3     1     2    1
     4     2     3    1
     5     3     4    1
     6     4     5    1
     7     5     7    1
     8     7    10    1
     9    10    11    1
    10    11    12   ar
    11    12    13   ar
    12    13    16    1
    13    16    17    1
    14    17    18    1
    15    17    19    1
    16    19    20    1
    17    19    21    1
    18    19    22    1
    19    22    23    1
    20    13    14   ar
    21    14    15   ar
    22     7     8    1
    23     8     9    1
    24     5     6    1
    25     6    25    1
    26    25    26    2
    27    25    27    2
    28    25    28    1
    29    28    29   ar
    30    29    30   ar
    31    30    31   ar
    32    31    32    1
    33    31    33   ar
    34    33    34   ar
    35     6     1    1
    36    34    28   ar
    37     9     7    1
    38    15    11   ar
    39    23    24    1
@<TRIPOS>MOLECULE
*****
 36 39 0 0 0
SMALL
GASTEIGER

@<TRIPOS>ATOM
      1 C          60.3702   86.7059    7.9760 C.3     1  UNL1        0.0795
      2 C          59.5848   87.5477    7.0145 C.3     1  UNL1        0.0178
      3 C          59.3150   88.9897    7.3273 C.3     1  UNL1        0.0029
      4 C          59.8306   89.5899    8.6016 C.3     1  UNL1        0.0178
      5 C          60.6161   88.7481    9.5631 C.3     1  UNL1        0.0799
      6 N          60.8858   87.3061    9.2503 N.3     1  UNL1       -0.1583
      7 C          61.1318   89.3483   10.8374 C.3     1  UNL1        0.0240
      8 C          61.1370   89.9408   12.2154 C.3     1  UNL1        0.0019
      9 C          59.8410   89.5346   11.5786 C.3     1  UNL1        0.0019
     10 C          62.6015   89.3704   10.5387 C.3     1  UNL1        0.0894
     11 C          63.4035   90.6086   10.8103 C.ar    1  UNL1        0.2364
     12 N          64.1383   90.9224   12.0799 N.ar    1  UNL1       -0.1934
     13 C          64.8003   92.2581   11.9143 C.ar    1  UNL1        0.1966
     14 N          64.4747   92.7699   10.5424 N.ar    1  UNL1       -0.0592
     15 O          63.6114   91.7504    9.8601 O.2     1  UNL1       -0.3373
     16 C          65.6405   92.9590   12.9403 C.3     1  UNL1        0.1424
     17 N          66.1563   92.2046   14.1298 N.3     1  UNL1       -0.2652
     18 C          65.2246   91.3513   14.9385 C.3     1  UNL1        0.0900
     19 C          67.6037   92.3035   14.5106 C.3     1  UNL1        0.0729
     20 C          67.2162   92.9110   15.8262 C.3     1  UNL1        0.0186
     21 C          67.9913   91.6959   13.1951 C.3     1  UNL1        0.0186
     22 C          69.0512   92.4024   14.8914 C.3     1  UNL1        0.1516
     23 O          70.1145   92.2419   13.8457 O.3     1  UNL1       -0.3806
     24 H          70.0982   91.3341   13.5045 H       1  UNL1        0.2105
     25 S          61.6713   86.4643   10.2118 S.O2    1  UNL1        0.0632
     26 O          62.8010   86.3941    9.2275 O.2     1  UNL1       -0.1528
     27 O          60.8558   86.3423   11.2807 O.2     1  UNL1       -0.1528
     28 C          62.4568   85.6225   11.1733 C.ar    1  UNL1        0.1222
     29 C          62.9218   84.2555   10.7667 C.ar    1  UNL1        0.0208
     30 C          63.7072   83.4138   11.7282 C.ar    1  UNL1        0.0128
     31 C          64.0278   83.9389   13.0962 C.ar    1  UNL1        0.0578
     32 CL         64.8132   83.0972   14.0576 Cl      1  UNL1       -0.0822
     33 C          63.5629   85.3059   13.5027 C.ar    1  UNL1        0.0128
     34 C          62.7773   86.1477   12.5413 C.ar    1  UNL1        0.0208
     35 C          61.6076   84.9005    6.5761 C.3     1  UNL1        0.0015
     36 C          60.6400   85.2639    7.6632 C.3     1  UNL1        0.0177
@<TRIPOS>BOND
     1    35    36    1
     2     1    36    1
     3     1     2    1
     4     2     3    1
     5     3     4    1
     6     4     5    1
     7     5     7    1
     8     7    10    1
     9    10    11    1
    10    11    12   ar
    11    12    13   ar
    12    13    16    1
    13    16    17    1
    14    17    18    1
    15    17    19    1
    16    19    20    1
    17    19    21    1
    18    19    22    1
    19    22    23    1
    20    13    14   ar
    21    14    15   ar
    22     7     8    1
    23     8     9    1
    24     5     6    1
    25     6    25    1
    26    25    26    2
    27    25    27    2
    28    25    28    1
    29    28    29   ar
    30    29    30   ar
    31    30    31   ar
    32    31    32    1
    33    31    33   ar
    34    33    34   ar
    35     6     1    1
    36    34    28   ar
    37     9     7    1
    38    15    11   ar
    39    23    24    1
@<TRIPOS>MOLECULE
*****
 36 39 0 0 0
SMALL
GASTEIGER

@<TRIPOS>ATOM
      1 C          65.4328   92.5351   12.5335 C.3     1  UNL1        0.0795
      2 C          66.4655   93.3126   13.2944 C.3     1  UNL1        0.0178
      3 C          66.7043   93.0215   14.7463 C.3     1  UNL1        0.0029
      4 C          65.9102   91.9530   15.4375 C.3     1  UNL1        0.0178
      5 C          64.8775   91.1756   14.6767 C.3     1  UNL1        0.0799
      6 N          64.6387   91.4666   13.2247 N.3     1  UNL1       -0.1583
      7 C          64.0833   90.1070   15.3678 C.3     1  UNL1        0.0240
      8 C          63.0983   89.4609   16.2964 C.3     1  UNL1        0.0019
      9 C          63.2576   90.9525   16.2917 C.3     1  UNL1        0.0019
     10 C          64.6333   88.8905   14.6840 C.3     1  UNL1        0.0894
     11 C          64.2006   87.5231   15.1235 C.ar    1  UNL1        0.2364
     12 N          64.5824   86.2262   14.4737 N.ar    1  UNL1       -0.1934
     13 C          63.9280   85.1142   15.2385 C.ar    1  UNL1        0.1966
     14 N          63.1416   85.7238   16.3610 N.ar    1  UNL1       -0.0592
     15 O          63.3101   87.2126   16.2899 O.2     1  UNL1       -0.3373
     16 C          64.0401   83.6497   14.9342 C.3     1  UNL1        0.1424
     17 N          63.1898   83.0396   13.8596 N.3     1  UNL1       -0.2652
     18 C          61.9879   82.2213   14.2281 C.3     1  UNL1        0.0900
     19 C          63.5416   83.2478   12.4163 C.3     1  UNL1        0.0729
     20 C          64.5915   82.1814   12.5184 C.3     1  UNL1        0.0186
     21 C          62.4916   84.3141   12.3143 C.3     1  UNL1        0.0186
     22 C          63.8933   83.4560   10.9731 C.3     1  UNL1        0.1516
     23 O          64.7382   82.4467   10.2539 O.3     1  UNL1       -0.3806
     24 H          65.6287   82.4377   10.6382 H       1  UNL1        0.2105
     25 S          63.6059   90.6891   12.4639 S.O2    1  UNL1        0.0632
     26 O          62.5894   91.7525   12.7571 O.2     1  UNL1       -0.1528
     27 O          64.2687   89.5912   12.0421 O.2     1  UNL1       -0.1528
     28 C          62.5731   89.9117   11.7031 C.ar    1  UNL1        0.1222
     29 C          62.6640   88.4162   11.6290 C.ar    1  UNL1        0.0208
     30 C          61.6312   87.6388   10.8683 C.ar    1  UNL1        0.0128
     31 C          60.5074   88.3567   10.1815 C.ar    1  UNL1        0.0578
     32 CL         59.4746   87.5793    9.4207 Cl      1  UNL1       -0.0822
     33 C          60.4164   89.8521   10.2555 C.ar    1  UNL1        0.0128
     34 C          61.4493   90.6296   11.0163 C.ar    1  UNL1        0.0208
     35 C          66.3130   93.3422   10.2262 C.3     1  UNL1        0.0015
     36 C          65.1940   92.8262   11.0815 C.3     1  UNL1        0.0177
@<TRIPOS>BOND
     1    35    36    1
     2     1    36    1
     3     1     2    1
     4     2     3    1
     5     3     4    1
     6     4     5    1
     7     5     7    1
     8     7    10    1
     9    10    11    1
    10    11    12   ar
    11    12    13   ar
    12    13    16    1
    13    16    17    1
    14    17    18    1
    15    17    19    1
    16    19    20    1
    17    19    21    1
    18    19    22    1
    19    22    23    1
    20    13    14   ar
    21    14    15   ar
    22     7     8    1
    23     8     9    1
    24     5     6    1
    25     6    25    1
    26    25    26    2
    27    25    27    2
    28    25    28    1
    29    28    29   ar
    30    29    30   ar
    31    30    31   ar
    32    31    32    1
    33    31    33   ar
    34    33    34   ar
    35     6     1    1
    36    34    28   ar
    37     9     7    1
    38    15    11   ar
    39    23    24    1
@<TRIPOS>MOLECULE
*****
 36 39 0 0 0
SMALL
GASTEIGER

@<TRIPOS>ATOM
      1 C          63.4914   84.5112    9.7722 C.3     1  UNL1        0.0795
      2 C          64.2821   83.2413    9.6626 C.3     1  UNL1        0.0178
      3 C          64.6671   82.4882   10.9013 C.3     1  UNL1        0.0029
      4 C          64.2615   83.0050   12.2498 C.3     1  UNL1        0.0178
      5 C          63.4708   84.2749   12.3594 C.3     1  UNL1        0.0799
      6 N          63.0858   85.0280   11.1207 N.3     1  UNL1       -0.1583
      7 C          63.0651   84.7918   13.7079 C.3     1  UNL1        0.0240
      8 C          62.2715   84.9725   14.9679 C.3     1  UNL1        0.0019
      9 C          61.8070   84.0033   13.9214 C.3     1  UNL1        0.0019
     10 C          64.1823   85.7598   13.9626 C.3     1  UNL1        0.0894
     11 C          63.9278   87.0067   14.7566 C.ar    1  UNL1        0.2364
     12 N          64.1909   88.4114   14.3008 N.ar    1  UNL1       -0.1934
     13 C          63.7912   89.3407   15.4082 C.ar    1  UNL1        0.1966
     14 N          63.2810   88.5104   16.5486 N.ar    1  UNL1       -0.0592
     15 O          63.3654   87.0679   16.1458 O.2     1  UNL1       -0.3373
     16 C          63.8852   90.8375   15.3803 C.3     1  UNL1        0.1424
     17 N          64.8971   91.5092   14.5000 N.3     1  UNL1       -0.2652
     18 C          64.6673   91.5908   13.0200 C.3     1  UNL1        0.0900
     19 C          66.1389   92.0993   15.0998 C.3     1  UNL1        0.0729
     20 C          66.8893   91.8063   13.8345 C.3     1  UNL1        0.0186
     21 C          65.3885   92.3923   16.3651 C.3     1  UNL1        0.0186
     22 C          67.3807   92.6894   15.6996 C.3     1  UNL1        0.1516
     23 O          68.6707   91.9253   15.6563 O.3     1  UNL1       -0.3806
     24 H          68.5916   91.1262   16.2004 H       1  UNL1        0.2105
     25 S          62.2950   86.2980   11.2304 S.O2    1  UNL1        0.0632
     26 O          61.0389   85.5435   10.9100 O.2     1  UNL1       -0.1528
     27 O          63.2199   87.2334   11.5340 O.2     1  UNL1       -0.1528
     28 C          61.5043   87.5679   11.3401 C.ar    1  UNL1        0.1222
     29 C          62.2099   88.8753   11.5476 C.ar    1  UNL1        0.0208
     30 C          61.4192   90.1452   11.6573 C.ar    1  UNL1        0.0128
     31 C          59.9229   90.1078   11.5595 C.ar    1  UNL1        0.0578
     32 CL         59.1321   91.3777   11.6692 Cl      1  UNL1       -0.0822
     33 C          59.2172   88.8005   11.3520 C.ar    1  UNL1        0.0128
     34 C          60.0080   87.5305   11.2423 C.ar    1  UNL1        0.0208
     35 C          62.7280   84.5176    7.2889 C.3     1  UNL1        0.0015
     36 C          63.1064   85.2644    8.5335 C.3     1  UNL1        0.0177
@<TRIPOS>BOND
     1    35    36    1
     2     1    36    1
     3     1     2    1
     4     2     3    1
     5     3     4    1
     6     4     5    1
     7     5     7    1
     8     7    10    1
     9    10    11    1
    10    11    12   ar
    11    12    13   ar
    12    13    16    1
    13    16    17    1
    14    17    18    1
    15    17    19    1
    16    19    20    1
    17    19    21    1
    18    19    22    1
    19    22    23    1
    20    13    14   ar
    21    14    15   ar
    22     7     8    1
    23     8     9    1
    24     5     6    1
    25     6    25    1
    26    25    26    2
    27    25    27    2
    28    25    28    1
    29    28    29   ar
    30    29    30   ar
    31    30    31   ar
    32    31    32    1
    33    31    33   ar
    34    33    34   ar
    35     6     1    1
    36    34    28   ar
    37     9     7    1
    38    15    11   ar
    39    23    24    1
@<TRIPOS>MOLECULE
*****
 36 39 0 0 0
SMALL
GASTEIGER

@<TRIPOS>ATOM
      1 C          63.0538   85.4861   12.4824 C.3     1  UNL1        0.0795
      2 C          63.8922   85.0326   13.6406 C.3     1  UNL1        0.0178
      3 C          64.5230   86.0439   14.5513 C.3     1  UNL1        0.0029
      4 C          64.3155   87.5087   14.3038 C.3     1  UNL1        0.0178
      5 C          63.4771   87.9622   13.1456 C.3     1  UNL1        0.0799
      6 N          62.8462   86.9509   12.2349 N.3     1  UNL1       -0.1583
      7 C          63.2694   89.4270   12.8981 C.3     1  UNL1        0.0240
      8 C          63.2297   90.7435   12.1803 C.3     1  UNL1        0.0019
      9 C          63.6807   89.5087   11.4579 C.3     1  UNL1        0.0019
     10 C          62.7861   89.8540   14.2524 C.3     1  UNL1        0.0894
     11 C          63.6124   90.7912   15.0824 C.ar    1  UNL1        0.2364
     12 N          65.0453   91.1588   14.8343 N.ar    1  UNL1       -0.1934
     13 C          65.4693   92.1201   15.9048 C.ar    1  UNL1        0.1966
     14 N          64.2984   92.3467   16.8146 N.ar    1  UNL1       -0.0592
     15 O          63.1507   91.5253   16.3063 O.2     1  UNL1       -0.3373
     16 C          66.8260   92.7452   16.0416 C.3     1  UNL1        0.1424
     17 N          67.7460   92.8072   14.8585 N.3     1  UNL1       -0.2652
     18 C          69.2298   92.7124   15.0564 C.3     1  UNL1        0.0900
     19 C          67.1821   92.9641   13.4774 C.3     1  UNL1        0.0729
     20 C          67.8084   91.6623   13.0738 C.3     1  UNL1        0.0186
     21 C          66.5557   94.2660   13.8810 C.3     1  UNL1        0.0186
     22 C          66.6181   93.1210   12.0963 C.3     1  UNL1        0.1516
     23 O          66.9804   94.3192   11.2699 O.3     1  UNL1       -0.3806
     24 H          66.6198   95.1187   11.6842 H       1  UNL1        0.2105
     25 S          62.0078   87.4044   11.0767 S.O2    1  UNL1        0.0632
     26 O          60.8453   87.6152   12.0009 O.2     1  UNL1       -0.1528
     27 O          62.8404   87.3191   10.0175 O.2     1  UNL1       -0.1528
     28 C          61.1694   87.8580    9.9186 C.ar    1  UNL1        0.1222
     29 C          60.5289   86.8465    9.0147 C.ar    1  UNL1        0.0208
     30 C          59.6905   87.3001    7.8566 C.ar    1  UNL1        0.0128
     31 C          59.4924   88.7650    7.6023 C.ar    1  UNL1        0.0578
     32 CL         58.6540   89.2186    6.4442 Cl      1  UNL1       -0.0822
     33 C          60.1328   89.7764    8.5061 C.ar    1  UNL1        0.0128
     34 C          60.9713   89.3229    9.6643 C.ar    1  UNL1        0.0208
     35 C          63.1756   83.2338   11.1932 C.3     1  UNL1        0.0015
     36 C          62.4230   84.4748   11.5717 C.3     1  UNL1        0.0177
@<TRIPOS>BOND
     1    35    36    1
     2     1    36    1
     3     1     2    1
     4     2     3    1
     5     3     4    1
     6     4     5    1
     7     5     7    1
     8     7    10    1
     9    10    11    1
    10    11    12   ar
    11    12    13   ar
    12    13    16    1
    13    16    17    1
    14    17    18    1
    15    17    19    1
    16    19    20    1
    17    19    21    1
    18    19    22    1
    19    22    23    1
    20    13    14   ar
    21    14    15   ar
    22     7     8    1
    23     8     9    1
    24     5     6    1
    25     6    25    1
    26    25    26    2
    27    25    27    2
    28    25    28    1
    29    28    29   ar
    30    29    30   ar
    31    30    31   ar
    32    31    32    1
    33    31    33   ar
    34    33    34   ar
    35     6     1    1
    36    34    28   ar
    37     9     7    1
    38    15    11   ar
    39    23    24    1
@<TRIPOS>MOLECULE
*****
 36 39 0 0 0
SMALL
GASTEIGER

@<TRIPOS>ATOM
      1 C          64.0218   86.8661   14.2981 C.3     1  UNL1        0.0795
      2 C          64.2572   88.3474   14.2901 C.3     1  UNL1        0.0178
      3 C          63.7856   89.1756   13.1318 C.3     1  UNL1        0.0029
      4 C          63.0784   88.5224   11.9815 C.3     1  UNL1        0.0178
      5 C          62.8430   87.0410   11.9895 C.3     1  UNL1        0.0799
      6 N          63.3147   86.2129   13.1478 N.3     1  UNL1       -0.1583
      7 C          62.1358   86.3877   10.8392 C.3     1  UNL1        0.0240
      8 C          61.8928   85.5006    9.6543 C.3     1  UNL1        0.0019
      9 C          63.2269   85.4874   10.3400 C.3     1  UNL1        0.0019
     10 C          60.7992   87.0612   10.9388 C.3     1  UNL1        0.0894
     11 C          60.3704   88.0367    9.8830 C.ar    1  UNL1        0.2364
     12 N          59.9509   87.6941    8.4842 N.ar    1  UNL1       -0.1934
     13 C          59.6070   88.9716    7.7774 C.ar    1  UNL1        0.1966
     14 N          59.8139   90.1038    8.7393 N.ar    1  UNL1       -0.0592
     15 O          60.2858   89.5259   10.0407 O.2     1  UNL1       -0.3373
     16 C          59.1384   89.0952    6.3578 C.3     1  UNL1        0.1424
     17 N          59.3186   90.3879    5.6184 N.3     1  UNL1       -0.2652
     18 C          60.6974   90.8757    5.2856 C.3     1  UNL1        0.0900
     19 C          58.1198   91.1927    5.2119 C.3     1  UNL1        0.0729
     20 C          59.0204   92.2282    4.6064 C.3     1  UNL1        0.0186
     21 C          57.2192   90.1571    5.8173 C.3     1  UNL1        0.0186
     22 C          56.9211   91.9975    4.8053 C.3     1  UNL1        0.1516
     23 O          55.5434   91.4290    4.9747 O.3     1  UNL1       -0.3806
     24 H          55.4339   90.6659    4.3859 H       1  UNL1        0.2105
     25 S          63.0792   84.7314   13.1558 S.O2    1  UNL1        0.0632
     26 O          61.6912   84.9549   13.6788 O.2     1  UNL1       -0.1528
     27 O          64.2400   84.2137   12.7008 O.2     1  UNL1       -0.1528
     28 C          62.8436   83.2501   13.1638 C.ar    1  UNL1        0.1222
     29 C          62.2292   82.5948   14.3651 C.ar    1  UNL1        0.0208
     30 C          61.9937   81.1134   14.3731 C.ar    1  UNL1        0.0128
     31 C          62.3725   80.2873   13.1798 C.ar    1  UNL1        0.0578
     32 CL         62.1370   78.8060   13.1878 Cl      1  UNL1       -0.0822
     33 C          62.9869   80.9426   11.9785 C.ar    1  UNL1        0.0128
     34 C          63.2224   82.4240   11.9704 C.ar    1  UNL1        0.0208
     35 C          63.5366   85.6625   16.5489 C.3     1  UNL1        0.0015
     36 C          64.4934   86.0379   15.4564 C.3     1  UNL1        0.0177
@<TRIPOS>BOND
     1    35    36    1
     2     1    36    1
     3     1     2    1
     4     2     3    1
     5     3     4    1
     6     4     5    1
     7     5     7    1
     8     7    10    1
     9    10    11    1
    10    11    12   ar
    11    12    13   ar
    12    13    16    1
    13    16    17    1
    14    17    18    1
    15    17    19    1
    16    19    20    1
    17    19    21    1
    18    19    22    1
    19    22    23    1
    20    13    14   ar
    21    14    15   ar
    22     7     8    1
    23     8     9    1
    24     5     6    1
    25     6    25    1
    26    25    26    2
    27    25    27    2
    28    25    28    1
    29    28    29   ar
    30    29    30   ar
    31    30    31   ar
    32    31    32    1
    33    31    33   ar
    34    33    34   ar
    35     6     1    1
    36    34    28   ar
    37     9     7    1
    38    15    11   ar
    39    23    24    1
@<TRIPOS>MOLECULE
*****
 36 39 0 0 0
SMALL
GASTEIGER

@<TRIPOS>ATOM
      1 C          62.2551   87.1627   10.8547 C.3     1  UNL1        0.0795
      2 C          62.3446   88.6257   10.5360 C.3     1  UNL1        0.0178
      3 C          63.0015   89.5653   11.5034 C.3     1  UNL1        0.0029
      4 C          63.5688   89.0418   12.7895 C.3     1  UNL1        0.0178
      5 C          63.4793   87.5789   13.1082 C.3     1  UNL1        0.0799
      6 N          62.8225   86.6393   12.1408 N.3     1  UNL1       -0.1583
      7 C          64.0467   87.0554   14.3944 C.3     1  UNL1        0.0240
      8 C          64.9126   86.2758   15.3390 C.3     1  UNL1        0.0019
      9 C          65.1035   86.1359   13.8578 C.3     1  UNL1        0.0019
     10 C          63.1869   87.7930   15.3775 C.3     1  UNL1        0.0894
     11 C          63.5008   89.2175   15.7274 C.ar    1  UNL1        0.2364
     12 N          64.7028   89.9924   15.2746 N.ar    1  UNL1       -0.1934
     13 C          64.6127   91.3709   15.8588 C.ar    1  UNL1        0.1966
     14 N          63.3550   91.4481   16.6727 N.ar    1  UNL1       -0.0592
     15 O          62.6679   90.1172   16.5915 O.2     1  UNL1       -0.3373
     16 C          65.6058   92.4779   15.6635 C.3     1  UNL1        0.1424
     17 N          66.4062   92.5528   14.3971 N.3     1  UNL1       -0.2652
     18 C          65.7079   92.6221   13.0714 C.3     1  UNL1        0.0900
     19 C          67.9050   92.5582   14.4564 C.3     1  UNL1        0.0729
     20 C          67.8538   93.4392   15.6694 C.3     1  UNL1        0.0186
     21 C          67.9562   91.6771   13.2435 C.3     1  UNL1        0.0186
     22 C          69.4038   92.5636   14.5158 C.3     1  UNL1        0.1516
     23 O          70.2010   91.9637   13.3957 O.3     1  UNL1       -0.3806
     24 H          70.0433   91.0072   13.3628 H       1  UNL1        0.2105
     25 S          62.7330   85.1763   12.4596 S.O2    1  UNL1        0.0632
     26 O          63.7394   84.8811   11.3873 O.2     1  UNL1       -0.1528
     27 O          61.8347   85.1155   13.4655 O.2     1  UNL1       -0.1528
     28 C          62.6436   83.7133   12.7784 C.ar    1  UNL1        0.1222
     29 C          62.8491   82.6958   11.6955 C.ar    1  UNL1        0.0208
     30 C          62.7596   81.2328   12.0143 C.ar    1  UNL1        0.0128
     31 C          62.4647   80.7872   13.4159 C.ar    1  UNL1        0.0578
     32 CL         62.3753   79.3242   13.7346 Cl      1  UNL1       -0.0822
     33 C          62.2592   81.8046   14.4987 C.ar    1  UNL1        0.0128
     34 C          62.3486   83.2677   14.1800 C.ar    1  UNL1        0.0208
     35 C          62.2433   85.9378    8.5636 C.3     1  UNL1        0.0015
     36 C          61.5983   86.2232    9.8874 C.3     1  UNL1        0.0177
@<TRIPOS>BOND
     1    35    36    1
     2     1    36    1
     3     1     2    1
     4     2     3    1
     5     3     4    1
     6     4     5    1
     7     5     7    1
     8     7    10    1
     9    10    11    1
    10    11    12   ar
    11    12    13   ar
    12    13    16    1
    13    16    17    1
    14    17    18    1
    15    17    19    1
    16    19    20    1
    17    19    21    1
    18    19    22    1
    19    22    23    1
    20    13    14   ar
    21    14    15   ar
    22     7     8    1
    23     8     9    1
    24     5     6    1
    25     6    25    1
    26    25    26    2
    27    25    27    2
    28    25    28    1
    29    28    29   ar
    30    29    30   ar
    31    30    31   ar
    32    31    32    1
    33    31    33   ar
    34    33    34   ar
    35     6     1    1
    36    34    28   ar
    37     9     7    1
    38    15    11   ar
    39    23    24    1
@<TRIPOS>MOLECULE
*****
 36 39 0 0 0
SMALL
GASTEIGER

@<TRIPOS>ATOM
      1 C          63.5170   86.8941   13.2740 C.3     1  UNL1        0.0795
      2 C          63.9538   87.5521   14.5492 C.3     1  UNL1        0.0178
      3 C          63.7087   89.0170   14.7595 C.3     1  UNL1        0.0029
      4 C          63.0268   89.8237   13.6947 C.3     1  UNL1        0.0178
      5 C          62.5899   89.1657   12.4195 C.3     1  UNL1        0.0799
      6 N          62.8350   87.7009   12.2092 N.3     1  UNL1       -0.1583
      7 C          61.9079   89.9725   11.3545 C.3     1  UNL1        0.0240
      8 C          60.8211   90.6819   10.6026 C.3     1  UNL1        0.0019
      9 C          60.5052   89.9724   11.8859 C.3     1  UNL1        0.0019
     10 C          63.0739   90.2527   10.4534 C.3     1  UNL1        0.0894
     11 C          63.9399   91.4527   10.6987 C.ar    1  UNL1        0.2364
     12 N          64.9015   91.6284   11.8365 N.ar    1  UNL1       -0.1934
     13 C          65.5522   92.9719   11.6903 C.ar    1  UNL1        0.1966
     14 N          64.9927   93.6267   10.4621 N.ar    1  UNL1       -0.0592
     15 O          63.9962   92.6877    9.8493 O.2     1  UNL1       -0.3373
     16 C          66.5816   93.5578   12.6106 C.3     1  UNL1        0.1424
     17 N          67.3225   92.6723   13.5682 N.3     1  UNL1       -0.2652
     18 C          68.4187   91.7786   13.0686 C.3     1  UNL1        0.0900
     19 C          66.9671   92.6805   15.0254 C.3     1  UNL1        0.0729
     20 C          67.8392   93.8835   15.2313 C.3     1  UNL1        0.0186
     21 C          66.0950   91.4775   14.8196 C.3     1  UNL1        0.0186
     22 C          66.6117   92.6887   16.4827 C.3     1  UNL1        0.1516
     23 O          65.1779   92.8154   16.9044 O.3     1  UNL1       -0.3806
     24 H          64.8422   93.6894   16.6506 H       1  UNL1        0.2105
     25 S          62.3982   87.0429   10.9339 S.O2    1  UNL1        0.0632
     26 O          61.1806   86.5076   11.6273 O.2     1  UNL1       -0.1528
     27 O          63.3663   87.3671   10.0507 O.2     1  UNL1       -0.1528
     28 C          61.9612   86.3849    9.6588 C.ar    1  UNL1        0.1222
     29 C          60.5594   86.5737    9.1594 C.ar    1  UNL1        0.0208
     30 C          60.1225   85.9157    7.8842 C.ar    1  UNL1        0.0128
     31 C          61.0874   85.0688    7.1084 C.ar    1  UNL1        0.0578
     32 CL         60.6505   84.4108    5.8332 Cl      1  UNL1       -0.0822
     33 C          62.4891   84.8800    7.6077 C.ar    1  UNL1        0.0128
     34 C          62.9261   85.5381    8.8829 C.ar    1  UNL1        0.0208
     35 C          63.2915   84.4360   14.0844 C.3     1  UNL1        0.0015
     36 C          63.7621   85.4293   13.0637 C.3     1  UNL1        0.0177
@<TRIPOS>BOND
     1    35    36    1
     2     1    36    1
     3     1     2    1
     4     2     3    1
     5     3     4    1
     6     4     5    1
     7     5     7    1
     8     7    10    1
     9    10    11    1
    10    11    12   ar
    11    12    13   ar
    12    13    16    1
    13    16    17    1
    14    17    18    1
    15    17    19    1
    16    19    20    1
    17    19    21    1
    18    19    22    1
    19    22    23    1
    20    13    14   ar
    21    14    15   ar
    22     7     8    1
    23     8     9    1
    24     5     6    1
    25     6    25    1
    26    25    26    2
    27    25    27    2
    28    25    28    1
    29    28    29   ar
    30    29    30   ar
    31    30    31   ar
    32    31    32    1
    33    31    33   ar
    34    33    34   ar
    35     6     1    1
    36    34    28   ar
    37     9     7    1
    38    15    11   ar
    39    23    24    1
