@<TRIPOS>MOLECULE
*****
 35 39 0 0 0
SMALL
GASTEIGER

@<TRIPOS>ATOM
      1 C          62.6326   78.9382   12.6389 C.3     1  UNL1        0.0952
      2 C          62.7927   80.3458   13.1315 C.2     1  UNL1        0.2298
      3 O          62.7749   80.6317   14.6040 O.2     1  UNL1       -0.2745
      4 N          62.9705   81.4677   12.1518 N.am    1  UNL1       -0.2605
      5 C          63.1305   82.8754   12.6446 C.ar    1  UNL1        0.0513
      6 C          63.1128   83.1613   14.1170 C.ar    1  UNL1        0.0146
      7 C          63.2728   84.5689   14.6096 C.ar    1  UNL1        0.0013
      8 C          63.4506   85.6908   13.6299 C.ar    1  UNL1       -0.0002
      9 C          63.4684   85.4050   12.1576 C.ar    1  UNL1       -0.0014
     10 C          63.3084   83.9973   11.6649 C.ar    1  UNL1        0.0092
     11 C          63.3262   83.7114   10.1924 C.3     1  UNL1        0.0947
     12 C          63.1661   82.3037    9.6998 C.3     1  UNL1        0.0442
     13 C          62.9883   81.1819   10.6795 C.3     1  UNL1        0.0818
     14 C          62.8282   79.7741   10.1867 C.3     1  UNL1        0.0220
     15 C          63.6107   87.0985   14.1227 C.ar    1  UNL1       -0.0000
     16 C          63.6928   88.2313   13.1429 C.ar    1  UNL1       -0.0003
     17 C          63.8529   89.6391   13.6357 C.ar    1  UNL1       -0.0029
     18 C          63.9308   89.9139   15.1082 C.ar    1  UNL1       -0.0061
     19 C          63.8486   88.7811   16.0880 C.ar    1  UNL1       -0.0029
     20 C          63.6886   87.3734   15.5952 C.ar    1  UNL1       -0.0003
     21 C          64.0908   91.3216   15.6010 C.3     1  UNL1        0.0991
     22 N          65.3476   92.0831   15.3002 N.3     1  UNL1       -0.2690
     23 C          66.2649   92.4872   16.4161 C.3     1  UNL1        0.0724
     24 C          67.5218   93.2488   16.1153 C.3     1  UNL1        0.0174
     25 C          67.8612   93.6062   14.6986 C.3     1  UNL1        0.0029
     26 C          66.9439   93.2021   13.5827 C.3     1  UNL1        0.0174
     27 C          65.6871   92.4406   13.8835 C.3     1  UNL1        0.0724
     28 N          63.5040   84.8333    9.2127 N.pl3   1  UNL1       -0.3305
     29 H          64.3762   84.9738    8.7783 H       1  UNL1        0.1471
     30 C          62.3529   85.7410    8.8950 C.ar    1  UNL1        0.0448
     31 C          62.2027   87.0444    9.6220 C.ar    1  UNL1        0.0143
     32 C          61.0516   87.9522    9.3042 C.ar    1  UNL1        0.0013
     33 C          60.0508   87.5565    8.2594 C.ar    1  UNL1        0.0001
     34 C          60.2010   86.2532    7.5323 C.ar    1  UNL1        0.0013
     35 C          61.3520   85.3454    7.8501 C.ar    1  UNL1        0.0143
@<TRIPOS>BOND
     1     1     2    1
     2     2     3    2
     3     2     4   am
     4     4     5    1
     5     5     6   ar
     6     6     7   ar
     7     7     8   ar
     8     8    15    1
     9    15    16   ar
    10    16    17   ar
    11    17    18   ar
    12    18    21    1
    13    21    22    1
    14    22    23    1
    15    23    24    1
    16    24    25    1
    17    25    26    1
    18    26    27    1
    19    18    19   ar
    20    19    20   ar
    21     8     9   ar
    22     9    10   ar
    23    10    11    1
    24    11    28    1
    25    28    30    1
    26    30    31   ar
    27    31    32   ar
    28    32    33   ar
    29    33    34   ar
    30    34    35   ar
    31    11    12    1
    32    12    13    1
    33    13    14    1
    34    13     4    1
    35    10     5   ar
    36    35    30   ar
    37    20    15   ar
    38    27    22    1
    39    28    29    1
@<TRIPOS>MOLECULE
*****
 35 39 0 0 0
SMALL
GASTEIGER

@<TRIPOS>ATOM
      1 C          62.2548   81.2426   14.7915 C.3     1  UNL1        0.0952
      2 C          62.6606   82.6862   14.7549 C.2     1  UNL1        0.2298
      3 O          63.0341   83.3927   16.0244 O.2     1  UNL1       -0.2745
      4 N          62.6928   83.4234   13.4490 N.am    1  UNL1       -0.2605
      5 C          63.0986   84.8671   13.4125 C.ar    1  UNL1        0.0513
      6 C          63.4721   85.5735   14.6819 C.ar    1  UNL1        0.0146
      7 C          63.8779   87.0170   14.6453 C.ar    1  UNL1        0.0013
      8 C          63.9101   87.7542   13.3394 C.ar    1  UNL1       -0.0002
      9 C          63.5366   87.0478   12.0700 C.ar    1  UNL1       -0.0014
     10 C          63.1308   85.6043   12.1065 C.ar    1  UNL1        0.0092
     11 C          62.7573   84.8978   10.8370 C.3     1  UNL1        0.0947
     12 C          62.3516   83.4542   10.8736 C.3     1  UNL1        0.0442
     13 C          62.3193   82.7170   12.1796 C.3     1  UNL1        0.0818
     14 C          61.9135   81.2733   12.2161 C.3     1  UNL1        0.0220
     15 C          64.3159   89.1979   13.3029 C.ar    1  UNL1       -0.0000
     16 C          65.2397   89.7440   14.3508 C.ar    1  UNL1       -0.0003
     17 C          65.6455   91.1877   14.3143 C.ar    1  UNL1       -0.0029
     18 C          65.1274   92.0852   13.2298 C.ar    1  UNL1       -0.0061
     19 C          64.2035   91.5390   12.1818 C.ar    1  UNL1       -0.0029
     20 C          63.7978   90.0954   12.2184 C.ar    1  UNL1       -0.0003
     21 C          65.5331   93.5287   13.1933 C.3     1  UNL1        0.0991
     22 N          66.1473   94.1039   11.9516 N.3     1  UNL1       -0.2690
     23 C          66.1578   95.5887   11.7385 C.3     1  UNL1        0.0724
     24 C          66.7720   96.1639   10.4967 C.3     1  UNL1        0.0174
     25 C          67.3756   95.2543    9.4680 C.3     1  UNL1        0.0029
     26 C          67.3651   93.7696    9.6811 C.3     1  UNL1        0.0174
     27 C          66.7510   93.1944   10.9228 C.3     1  UNL1        0.0724
     28 N          62.7896   85.6350    9.5311 N.pl3   1  UNL1       -0.3305
     29 H          63.6008   85.6136    8.9737 H       1  UNL1        0.1471
     30 C          61.5858   86.4046    9.0744 C.ar    1  UNL1        0.0448
     31 C          60.6033   85.7718    8.1342 C.ar    1  UNL1        0.0143
     32 C          59.3995   86.5415    7.6775 C.ar    1  UNL1        0.0013
     33 C          59.1784   87.9441    8.1610 C.ar    1  UNL1        0.0001
     34 C          60.1609   88.5770    9.1013 C.ar    1  UNL1        0.0013
     35 C          61.3646   87.8073    9.5579 C.ar    1  UNL1        0.0143
@<TRIPOS>BOND
     1     1     2    1
     2     2     3    2
     3     2     4   am
     4     4     5    1
     5     5     6   ar
     6     6     7   ar
     7     7     8   ar
     8     8    15    1
     9    15    16   ar
    10    16    17   ar
    11    17    18   ar
    12    18    21    1
    13    21    22    1
    14    22    23    1
    15    23    24    1
    16    24    25    1
    17    25    26    1
    18    26    27    1
    19    18    19   ar
    20    19    20   ar
    21     8     9   ar
    22     9    10   ar
    23    10    11    1
    24    11    28    1
    25    28    30    1
    26    30    31   ar
    27    31    32   ar
    28    32    33   ar
    29    33    34   ar
    30    34    35   ar
    31    11    12    1
    32    12    13    1
    33    13    14    1
    34    13     4    1
    35    10     5   ar
    36    35    30   ar
    37    20    15   ar
    38    27    22    1
    39    28    29    1
@<TRIPOS>MOLECULE
*****
 35 39 0 0 0
SMALL
GASTEIGER

@<TRIPOS>ATOM
      1 C          62.5243   83.4550   16.1847 C.3     1  UNL1        0.0952
      2 C          62.9886   84.8387   15.8390 C.2     1  UNL1        0.2298
      3 O          63.4831   85.7555   16.9184 O.2     1  UNL1       -0.2745
      4 N          62.9585   85.3058   14.4139 N.am    1  UNL1       -0.2605
      5 C          63.4229   86.6897   14.0682 C.ar    1  UNL1        0.0513
      6 C          63.9174   87.6063   15.1476 C.ar    1  UNL1        0.0146
      7 C          64.3817   88.9901   14.8019 C.ar    1  UNL1        0.0013
      8 C          64.3516   89.4572   13.3768 C.ar    1  UNL1       -0.0002
      9 C          63.8572   88.5405   12.2974 C.ar    1  UNL1       -0.0014
     10 C          63.3928   87.1567   12.6431 C.ar    1  UNL1        0.0092
     11 C          62.8983   86.2400   11.5637 C.3     1  UNL1        0.0947
     12 C          62.4340   84.8562   11.9094 C.3     1  UNL1        0.0442
     13 C          62.4641   84.3891   13.3345 C.3     1  UNL1        0.0818
     14 C          61.9997   83.0053   13.6802 C.3     1  UNL1        0.0220
     15 C          64.8160   90.8410   13.0311 C.ar    1  UNL1       -0.0000
     16 C          64.4061   91.4668   11.7310 C.ar    1  UNL1       -0.0003
     17 C          64.8705   92.8506   11.3853 C.ar    1  UNL1       -0.0029
     18 C          65.7447   93.6086   12.3399 C.ar    1  UNL1       -0.0061
     19 C          66.1546   92.9828   13.6401 C.ar    1  UNL1       -0.0029
     20 C          65.6902   91.5990   13.9857 C.ar    1  UNL1       -0.0003
     21 C          66.2091   94.9924   11.9943 C.3     1  UNL1        0.0991
     22 N          66.3344   95.4044   10.5574 N.3     1  UNL1       -0.2690
     23 C          65.3748   96.4002    9.9764 C.3     1  UNL1        0.0724
     24 C          65.5001   96.8122    8.5395 C.3     1  UNL1        0.0174
     25 C          66.5850   96.2285    7.6837 C.3     1  UNL1        0.0029
     26 C          67.5445   95.2327    8.2648 C.3     1  UNL1        0.0174
     27 C          67.4193   94.8207    9.7016 C.3     1  UNL1        0.0724
     28 N          62.8682   86.7070   10.1386 N.pl3   1  UNL1       -0.3305
     29 H          63.6979   86.7251    9.6088 H       1  UNL1        0.1471
     30 C          61.5741   87.1466    9.5206 C.ar    1  UNL1        0.0448
     31 C          61.0904   88.5533    9.7137 C.ar    1  UNL1        0.0143
     32 C          59.7962   88.9928    9.0956 C.ar    1  UNL1        0.0013
     33 C          58.9858   88.0258    8.2845 C.ar    1  UNL1        0.0001
     34 C          59.4696   86.6191    8.0914 C.ar    1  UNL1        0.0013
     35 C          60.7637   86.1795    8.7094 C.ar    1  UNL1        0.0143
@<TRIPOS>BOND
     1     1     2    1
     2     2     3    2
     3     2     4   am
     4     4     5    1
     5     5     6   ar
     6     6     7   ar
     7     7     8   ar
     8     8    15    1
     9    15    16   ar
    10    16    17   ar
    11    17    18   ar
    12    18    21    1
    13    21    22    1
    14    22    23    1
    15    23    24    1
    16    24    25    1
    17    25    26    1
    18    26    27    1
    19    18    19   ar
    20    19    20   ar
    21     8     9   ar
    22     9    10   ar
    23    10    11    1
    24    11    28    1
    25    28    30    1
    26    30    31   ar
    27    31    32   ar
    28    32    33   ar
    29    33    34   ar
    30    34    35   ar
    31    11    12    1
    32    12    13    1
    33    13    14    1
    34    13     4    1
    35    10     5   ar
    36    35    30   ar
    37    20    15   ar
    38    27    22    1
    39    28    29    1
@<TRIPOS>MOLECULE
*****
 35 39 0 0 0
SMALL
GASTEIGER

@<TRIPOS>ATOM
      1 C          58.8989   88.0261    6.8858 C.3     1  UNL1        0.0952
      2 C          59.7229   88.7137    7.9337 C.2     1  UNL1        0.2298
      3 O          59.7203   90.2109    8.0269 O.2     1  UNL1       -0.2745
      4 N          60.5495   87.9043    8.8884 N.am    1  UNL1       -0.2605
      5 C          61.3735   88.5920    9.9364 C.ar    1  UNL1        0.0513
      6 C          61.3709   90.0891   10.0296 C.ar    1  UNL1        0.0146
      7 C          62.1948   90.7767   11.0775 C.ar    1  UNL1        0.0013
      8 C          63.0215   89.9673   12.0322 C.ar    1  UNL1       -0.0002
      9 C          63.0241   88.4702   11.9390 C.ar    1  UNL1       -0.0014
     10 C          62.2002   87.7826   10.8911 C.ar    1  UNL1        0.0092
     11 C          62.2028   86.2854   10.7978 C.3     1  UNL1        0.0947
     12 C          61.3788   85.5978    9.7499 C.3     1  UNL1        0.0442
     13 C          60.5522   86.4072    8.7952 C.3     1  UNL1        0.0818
     14 C          59.7282   85.7195    7.7472 C.3     1  UNL1        0.0220
     15 C          63.8455   90.6550   13.0802 C.ar    1  UNL1       -0.0000
     16 C          63.6336   90.3351   14.5302 C.ar    1  UNL1       -0.0003
     17 C          64.4576   91.0228   15.5782 C.ar    1  UNL1       -0.0029
     18 C          65.4935   92.0304   15.1760 C.ar    1  UNL1       -0.0061
     19 C          65.7053   92.3503   13.7258 C.ar    1  UNL1       -0.0029
     20 C          64.8813   91.6626   12.6780 C.ar    1  UNL1       -0.0003
     21 C          66.3174   92.7181   16.2238 C.3     1  UNL1        0.0991
     22 N          67.7443   93.0812   15.9371 N.3     1  UNL1       -0.2690
     23 C          68.2929   94.3955   16.4079 C.3     1  UNL1        0.0724
     24 C          69.7198   94.7585   16.1211 C.3     1  UNL1        0.0174
     25 C          70.5980   93.8073   15.3636 C.3     1  UNL1        0.0029
     26 C          70.0494   92.4930   14.8928 C.3     1  UNL1        0.0174
     27 C          68.6226   92.1299   15.1796 C.3     1  UNL1        0.0724
     28 N          63.0294   85.4760   11.7526 N.pl3   1  UNL1       -0.3305
     29 H          63.5497   85.9259   12.4569 H       1  UNL1        0.1471
     30 C          63.0633   83.9811   11.6341 C.ar    1  UNL1        0.0448
     31 C          62.3915   83.1311   12.6715 C.ar    1  UNL1        0.0143
     32 C          62.4255   81.6361   12.5530 C.ar    1  UNL1        0.0013
     33 C          63.1312   80.9912   11.3972 C.ar    1  UNL1        0.0001
     34 C          63.8030   81.8412   10.3599 C.ar    1  UNL1        0.0013
     35 C          63.7691   83.3361   10.4783 C.ar    1  UNL1        0.0143
@<TRIPOS>BOND
     1     1     2    1
     2     2     3    2
     3     2     4   am
     4     4     5    1
     5     5     6   ar
     6     6     7   ar
     7     7     8   ar
     8     8    15    1
     9    15    16   ar
    10    16    17   ar
    11    17    18   ar
    12    18    21    1
    13    21    22    1
    14    22    23    1
    15    23    24    1
    16    24    25    1
    17    25    26    1
    18    26    27    1
    19    18    19   ar
    20    19    20   ar
    21     8     9   ar
    22     9    10   ar
    23    10    11    1
    24    11    28    1
    25    28    30    1
    26    30    31   ar
    27    31    32   ar
    28    32    33   ar
    29    33    34   ar
    30    34    35   ar
    31    11    12    1
    32    12    13    1
    33    13    14    1
    34    13     4    1
    35    10     5   ar
    36    35    30   ar
    37    20    15   ar
    38    27    22    1
    39    28    29    1
@<TRIPOS>MOLECULE
*****
 35 39 0 0 0
SMALL
GASTEIGER

@<TRIPOS>ATOM
      1 C          58.9614   87.5774    6.9041 C.3     1  UNL1        0.0952
      2 C          59.7052   88.2833    7.9988 C.2     1  UNL1        0.2298
      3 O          59.4882   89.7497    8.2285 O.2     1  UNL1       -0.2745
      4 N          60.6661   87.5228    8.8640 N.am    1  UNL1       -0.2605
      5 C          61.4099   88.2287    9.9587 C.ar    1  UNL1        0.0513
      6 C          61.1928   89.6950   10.1884 C.ar    1  UNL1        0.0146
      7 C          61.9367   90.4009   11.2831 C.ar    1  UNL1        0.0013
      8 C          62.8975   89.6404   12.1482 C.ar    1  UNL1       -0.0002
      9 C          63.1146   88.1741   11.9186 C.ar    1  UNL1       -0.0014
     10 C          62.3708   87.4683   10.8239 C.ar    1  UNL1        0.0092
     11 C          62.5878   86.0019   10.5942 C.3     1  UNL1        0.0947
     12 C          61.8440   85.2960    9.4995 C.3     1  UNL1        0.0442
     13 C          60.8831   86.0565    8.6343 C.3     1  UNL1        0.0818
     14 C          60.1393   85.3506    7.5396 C.3     1  UNL1        0.0220
     15 C          63.6414   90.3463   13.2430 C.ar    1  UNL1       -0.0000
     16 C          64.7061   91.3464   12.9023 C.ar    1  UNL1       -0.0003
     17 C          65.4500   92.0523   13.9971 C.ar    1  UNL1       -0.0029
     18 C          65.1289   91.7581   15.4325 C.ar    1  UNL1       -0.0061
     19 C          64.0641   90.7580   15.7731 C.ar    1  UNL1       -0.0029
     20 C          63.3203   90.0521   14.6784 C.ar    1  UNL1       -0.0003
     21 C          65.8727   92.4640   16.5273 C.3     1  UNL1        0.0991
     22 N          67.3096   92.8474   16.3314 N.3     1  UNL1       -0.2690
     23 C          68.3942   91.8395   16.5718 C.3     1  UNL1        0.0724
     24 C          69.8311   92.2230   16.3760 C.3     1  UNL1        0.0174
     25 C          70.1833   93.6142   15.9397 C.3     1  UNL1        0.0029
     26 C          69.0987   94.6221   15.6993 C.3     1  UNL1        0.0174
     27 C          67.6618   94.2387   15.8951 C.3     1  UNL1        0.0724
     28 N          63.5487   85.2414   11.4593 N.pl3   1  UNL1       -0.3305
     29 H          64.3496   84.8297   11.0614 H       1  UNL1        0.1471
     30 C          63.2893   85.1082   12.9307 C.ar    1  UNL1        0.0448
     31 C          62.3227   84.0762   13.4314 C.ar    1  UNL1        0.0143
     32 C          62.0634   83.9430   14.9029 C.ar    1  UNL1        0.0013
     33 C          62.7706   84.8417   15.8735 C.ar    1  UNL1        0.0001
     34 C          63.7372   85.8737   15.3727 C.ar    1  UNL1        0.0013
     35 C          63.9966   86.0069   13.9013 C.ar    1  UNL1        0.0143
@<TRIPOS>BOND
     1     1     2    1
     2     2     3    2
     3     2     4   am
     4     4     5    1
     5     5     6   ar
     6     6     7   ar
     7     7     8   ar
     8     8    15    1
     9    15    16   ar
    10    16    17   ar
    11    17    18   ar
    12    18    21    1
    13    21    22    1
    14    22    23    1
    15    23    24    1
    16    24    25    1
    17    25    26    1
    18    26    27    1
    19    18    19   ar
    20    19    20   ar
    21     8     9   ar
    22     9    10   ar
    23    10    11    1
    24    11    28    1
    25    28    30    1
    26    30    31   ar
    27    31    32   ar
    28    32    33   ar
    29    33    34   ar
    30    34    35   ar
    31    11    12    1
    32    12    13    1
    33    13    14    1
    34    13     4    1
    35    10     5   ar
    36    35    30   ar
    37    20    15   ar
    38    27    22    1
    39    28    29    1
