@<TRIPOS>MOLECULE
*****
 29 31 0 0 0
SMALL
GASTEIGER

@<TRIPOS>ATOM
      1 C          64.2324   88.2892   14.9302 C.3     1  UNL1        0.0527
      2 C          64.1766   89.3341   13.8555 C.ar    1  UNL1        0.0688
      3 N          64.7739   90.7080   13.9297 N.ar    1  UNL1       -0.2282
      4 C          64.4801   91.4116   12.6379 C.ar    1  UNL1        0.1664
      5 S          63.7013   90.4724   11.7653 S.2     1  UNL1       -0.0502
      6 C          63.5137   89.1884   12.5178 C.ar    1  UNL1        0.0633
      7 N          64.8928   92.8089   12.2813 N.am    1  UNL1       -0.2483
      8 C          65.9582   93.0363   11.2501 C.2     1  UNL1        0.3094
      9 O          66.6110   91.8662   10.5756 O.2     1  UNL1       -0.2522
     10 N          66.3708   94.4336   10.8935 N.am    1  UNL1       -0.2572
     11 C          65.8108   95.6952   11.4806 C.3     1  UNL1        0.0955
     12 C          66.5098   96.8560   10.8372 C.3     1  UNL1        0.0238
     13 C          67.5018   96.3117    9.8524 C.3     1  UNL1        0.0310
     14 C          67.4159   94.8146    9.8873 C.3     1  UNL1        0.1528
     15 H          64.4643   93.5768   12.7240 H       1  UNL1        0.1583
     16 C          68.2318   93.8653    9.0609 C.2     1  UNL1        0.2375
     17 N          69.2311   92.9633    9.7224 N.am    1  UNL1       -0.3275
     18 O          68.0484   93.8179    7.5728 O.2     1  UNL1       -0.2736
     19 H          69.3516   92.9943   10.6990 H       1  UNL1        0.1450
     20 H          69.7667   92.3402    9.1800 H       1  UNL1        0.1450
     21 C          62.7902   87.9723   12.0200 C.ar    1  UNL1        0.0914
     22 C          61.6970   88.1140   11.0028 C.ar    1  UNL1        0.0404
     23 C          60.9736   86.8980   10.5050 C.ar    1  UNL1        0.1018
     24 N          61.3434   85.5402   11.0245 N.ar    1  UNL1       -0.2292
     25 C          62.4366   85.3986   12.0416 C.ar    1  UNL1        0.1387
     26 N          63.1601   86.6146   12.5394 N.ar    1  UNL1       -0.2301
     27 C          62.8065   84.0408   12.5611 C.3     1  UNL1        0.0586
     28 C          63.1579   82.9415   11.6031 C.3     1  UNL1        0.0080
     29 C          62.8248   83.7825   14.0385 C.3     1  UNL1        0.0080
@<TRIPOS>BOND
     1     1     2    1
     2     2     3   ar
     3     3     4   ar
     4     4     7    1
     5     7     8   am
     6     8     9    2
     7     8    10   am
     8    10    11    1
     9    11    12    1
    10    12    13    1
    11    13    14    1
    12    14    16    1
    13    16    17   am
    14    16    18    2
    15     4     5   ar
    16     5     6   ar
    17     6    21    1
    18    21    22   ar
    19    22    23   ar
    20    23    24   ar
    21    24    25   ar
    22    25    27    1
    23    27    28    1
    24    27    29    1
    25    25    26   ar
    26     6     2   ar
    27    26    21   ar
    28    14    10    1
    29     7    15    1
    30    17    19    1
    31    17    20    1
@<TRIPOS>MOLECULE
*****
 29 31 0 0 0
SMALL
GASTEIGER

@<TRIPOS>ATOM
      1 C          58.6198   89.1381   11.9246 C.3     1  UNL1        0.0527
      2 C          60.1099   89.2804   12.0214 C.ar    1  UNL1        0.0688
      3 N          60.8566   90.0319   13.0832 N.ar    1  UNL1       -0.2282
      4 C          62.3232   89.9122   12.7914 C.ar    1  UNL1        0.1664
      5 S          62.4827   89.0867   11.5492 S.2     1  UNL1       -0.0502
      6 C          61.1148   88.6962   11.0733 C.ar    1  UNL1        0.0633
      7 N          63.4349   90.5126   13.5998 N.am    1  UNL1       -0.2483
      8 C          64.3774   91.4930   12.9671 C.2     1  UNL1        0.3094
      9 O          64.2082   91.8731   11.5259 O.2     1  UNL1       -0.2522
     10 N          65.4892   92.0934   13.7756 N.am    1  UNL1       -0.2572
     11 C          65.7814   91.8108   15.2194 C.3     1  UNL1        0.0955
     12 C          66.9767   92.6246   15.6183 C.3     1  UNL1        0.0238
     13 C          67.4232   93.4100   14.4209 C.3     1  UNL1        0.0310
     14 C          66.5038   93.0818   13.2820 C.3     1  UNL1        0.1528
     15 H          63.5459   90.2631   14.5457 H       1  UNL1        0.1583
     16 C          66.5850   93.6433   11.8936 C.2     1  UNL1        0.2375
     17 N          65.6912   94.7784   11.4901 N.am    1  UNL1       -0.3275
     18 O          67.5599   93.0697   10.9083 O.2     1  UNL1       -0.2736
     19 H          65.0513   95.1549   12.1366 H       1  UNL1        0.1450
     20 H          65.7445   95.1469   10.5787 H       1  UNL1        0.1450
     21 C          60.8061   87.8671    9.8619 C.ar    1  UNL1        0.0914
     22 C          59.5045   88.0505    9.1394 C.ar    1  UNL1        0.0404
     23 C          59.1958   87.2214    7.9281 C.ar    1  UNL1        0.1018
     24 N          60.1888   86.2088    7.4394 N.ar    1  UNL1       -0.2292
     25 C          61.4904   86.0254    8.1619 C.ar    1  UNL1        0.1387
     26 N          61.7990   86.8545    9.3732 N.ar    1  UNL1       -0.2301
     27 C          62.4833   85.0129    7.6732 C.3     1  UNL1        0.0586
     28 C          62.4304   84.5359    6.2521 C.3     1  UNL1        0.0080
     29 C          63.5292   84.4774    8.6056 C.3     1  UNL1        0.0080
@<TRIPOS>BOND
     1     1     2    1
     2     2     3   ar
     3     3     4   ar
     4     4     7    1
     5     7     8   am
     6     8     9    2
     7     8    10   am
     8    10    11    1
     9    11    12    1
    10    12    13    1
    11    13    14    1
    12    14    16    1
    13    16    17   am
    14    16    18    2
    15     4     5   ar
    16     5     6   ar
    17     6    21    1
    18    21    22   ar
    19    22    23   ar
    20    23    24   ar
    21    24    25   ar
    22    25    27    1
    23    27    28    1
    24    27    29    1
    25    25    26   ar
    26     6     2   ar
    27    26    21   ar
    28    14    10    1
    29     7    15    1
    30    17    19    1
    31    17    20    1
@<TRIPOS>MOLECULE
*****
 29 31 0 0 0
SMALL
GASTEIGER

@<TRIPOS>ATOM
      1 C          61.6100   90.5896   11.7809 C.3     1  UNL1        0.0527
      2 C          62.3006   89.2876   12.0597 C.ar    1  UNL1        0.0688
      3 N          62.0968   88.0036   11.3115 N.ar    1  UNL1       -0.2282
      4 C          62.9865   86.9633   11.9249 C.ar    1  UNL1        0.1664
      5 S          63.7402   87.6044   13.0523 S.2     1  UNL1       -0.0502
      6 C          63.3162   89.0409   13.1356 C.ar    1  UNL1        0.0633
      7 N          63.1022   85.5331   11.4878 N.am    1  UNL1       -0.2483
      8 C          62.7132   84.4285   12.4251 C.2     1  UNL1        0.3094
      9 O          62.2084   84.7542   13.7996 O.2     1  UNL1       -0.2522
     10 N          62.8289   82.9983   11.9879 N.am    1  UNL1       -0.2572
     11 C          63.3144   82.5215   10.6512 C.3     1  UNL1        0.0955
     12 C          63.2650   81.0224   10.6479 C.3     1  UNL1        0.0238
     13 C          62.7489   80.5727   11.9826 C.3     1  UNL1        0.0310
     14 C          62.4794   81.7939   12.8108 C.3     1  UNL1        0.1528
     15 H          63.4335   85.3194   10.5857 H       1  UNL1        0.1583
     16 C          61.9529   81.8081   14.2152 C.2     1  UNL1        0.2375
     17 N          62.7528   82.4502   15.3097 N.am    1  UNL1       -0.3275
     18 O          60.6264   81.1801   14.5253 O.2     1  UNL1       -0.2736
     19 H          63.6235   82.8623   15.1063 H       1  UNL1        0.1450
     20 H          62.4072   82.4595   16.2315 H       1  UNL1        0.1450
     21 C          63.8196   90.0529   14.1218 C.ar    1  UNL1        0.0914
     22 C          63.2655   90.0823   15.5153 C.ar    1  UNL1        0.0404
     23 C          63.7689   91.0943   16.5014 C.ar    1  UNL1        0.1018
     24 N          64.8264   92.0770   16.0938 N.ar    1  UNL1       -0.2292
     25 C          65.3805   92.0476   14.7003 C.ar    1  UNL1        0.1387
     26 N          64.8771   91.0356   13.7142 N.ar    1  UNL1       -0.2301
     27 C          66.4380   93.0303   14.2928 C.3     1  UNL1        0.0586
     28 C          67.5297   93.3987   15.2532 C.3     1  UNL1        0.0080
     29 C          66.4039   93.6446   12.9248 C.3     1  UNL1        0.0080
@<TRIPOS>BOND
     1     1     2    1
     2     2     3   ar
     3     3     4   ar
     4     4     7    1
     5     7     8   am
     6     8     9    2
     7     8    10   am
     8    10    11    1
     9    11    12    1
    10    12    13    1
    11    13    14    1
    12    14    16    1
    13    16    17   am
    14    16    18    2
    15     4     5   ar
    16     5     6   ar
    17     6    21    1
    18    21    22   ar
    19    22    23   ar
    20    23    24   ar
    21    24    25   ar
    22    25    27    1
    23    27    28    1
    24    27    29    1
    25    25    26   ar
    26     6     2   ar
    27    26    21   ar
    28    14    10    1
    29     7    15    1
    30    17    19    1
    31    17    20    1
@<TRIPOS>MOLECULE
*****
 29 31 0 0 0
SMALL
GASTEIGER

@<TRIPOS>ATOM
      1 C          62.1668   88.3182   11.5280 C.3     1  UNL1        0.0527
      2 C          62.9603   89.4961   12.0105 C.ar    1  UNL1        0.0688
      3 N          63.2712   90.7328   11.2206 N.ar    1  UNL1       -0.2282
      4 C          64.0853   91.6453   12.0894 C.ar    1  UNL1        0.1664
      5 S          64.2775   90.9724   13.4162 S.2     1  UNL1       -0.0502
      6 C          63.5822   89.6441   13.3674 C.ar    1  UNL1        0.0633
      7 N          64.6143   92.9937   11.6999 N.am    1  UNL1       -0.2483
      8 C          65.8311   93.0991   10.8290 C.2     1  UNL1        0.3094
      9 O          66.5189   91.8559   10.3477 O.2     1  UNL1       -0.2522
     10 N          66.3601   94.4476   10.4394 N.am    1  UNL1       -0.2572
     11 C          65.7814   95.7716   10.8420 C.3     1  UNL1        0.0955
     12 C          66.6243   96.8510   10.2303 C.3     1  UNL1        0.0238
     13 C          67.7239   96.1942    9.4496 C.3     1  UNL1        0.0310
     14 C          67.5606   94.7087    9.5789 C.3     1  UNL1        0.1528
     15 H          64.1629   93.8096   12.0157 H       1  UNL1        0.1583
     16 C          68.4429   93.6673    8.9568 C.2     1  UNL1        0.2375
     17 N          69.4151   92.9034    9.8061 N.am    1  UNL1       -0.3275
     18 O          68.3530   93.3898    7.4854 O.2     1  UNL1       -0.2736
     19 H          69.4741   93.0854   10.7718 H       1  UNL1        0.1450
     20 H          69.9941   92.2199    9.3977 H       1  UNL1        0.1450
     21 C          63.5198   88.6402   14.4802 C.ar    1  UNL1        0.0914
     22 C          63.1642   89.0812   15.8691 C.ar    1  UNL1        0.0404
     23 C          63.1018   88.0773   16.9818 C.ar    1  UNL1        0.1018
     24 N          63.3951   86.6324   16.7057 N.ar    1  UNL1       -0.2292
     25 C          63.7508   86.1914   15.3168 C.ar    1  UNL1        0.1387
     26 N          63.8131   87.1953   14.2041 N.ar    1  UNL1       -0.2301
     27 C          64.0441   84.7465   15.0407 C.3     1  UNL1        0.0586
     28 C          65.2337   84.3683   14.2091 C.3     1  UNL1        0.0080
     29 C          63.1477   83.6798   15.5962 C.3     1  UNL1        0.0080
@<TRIPOS>BOND
     1     1     2    1
     2     2     3   ar
     3     3     4   ar
     4     4     7    1
     5     7     8   am
     6     8     9    2
     7     8    10   am
     8    10    11    1
     9    11    12    1
    10    12    13    1
    11    13    14    1
    12    14    16    1
    13    16    17   am
    14    16    18    2
    15     4     5   ar
    16     5     6   ar
    17     6    21    1
    18    21    22   ar
    19    22    23   ar
    20    23    24   ar
    21    24    25   ar
    22    25    27    1
    23    27    28    1
    24    27    29    1
    25    25    26   ar
    26     6     2   ar
    27    26    21   ar
    28    14    10    1
    29     7    15    1
    30    17    19    1
    31    17    20    1
@<TRIPOS>MOLECULE
*****
 29 31 0 0 0
SMALL
GASTEIGER

@<TRIPOS>ATOM
      1 C          63.5007   89.9296   16.4892 C.3     1  UNL1        0.0527
      2 C          63.9487   90.4673   15.1625 C.ar    1  UNL1        0.0688
      3 N          64.2677   91.9002   14.8541 N.ar    1  UNL1       -0.2282
      4 C          64.6726   91.9850   13.4122 C.ar    1  UNL1        0.1664
      5 S          64.6039   90.6045   12.8296 S.2     1  UNL1       -0.0502
      6 C          64.1565   89.6665   13.9113 C.ar    1  UNL1        0.0633
      7 N          65.0754   93.2314   12.6814 N.am    1  UNL1       -0.2483
      8 C          66.1263   93.1679   11.6129 C.2     1  UNL1        0.3094
      9 O          66.7744   91.8578   11.2753 O.2     1  UNL1       -0.2522
     10 N          66.5291   94.4143   10.8821 N.am    1  UNL1       -0.2572
     11 C          65.9724   95.7885   11.1093 C.3     1  UNL1        0.0955
     12 C          66.6586   96.7288   10.1634 C.3     1  UNL1        0.0238
     13 C          67.6395   95.9359    9.3516 C.3     1  UNL1        0.0310
     14 C          67.5595   94.5053    9.7958 C.3     1  UNL1        0.1528
     15 H          64.6501   94.0912   12.9030 H       1  UNL1        0.1583
     16 C          68.3678   93.3661    9.2496 C.2     1  UNL1        0.2375
     17 N          69.2381   92.5571   10.1651 N.am    1  UNL1       -0.3275
     18 O          68.3060   93.0357    7.7877 O.2     1  UNL1       -0.2736
     19 H          69.2788   92.7739   11.1245 H       1  UNL1        0.1450
     20 H          69.7687   91.8093    9.8065 H       1  UNL1        0.1450
     21 C          63.9528   88.1874   13.7670 C.ar    1  UNL1        0.0914
     22 C          64.4754   87.2524   14.8171 C.ar    1  UNL1        0.0404
     23 C          64.2716   85.7733   14.6728 C.ar    1  UNL1        0.1018
     24 N          63.5452   85.2293   13.4785 N.ar    1  UNL1       -0.2292
     25 C          63.0226   86.1643   12.4284 C.ar    1  UNL1        0.1387
     26 N          63.2264   87.6433   12.5727 N.ar    1  UNL1       -0.2301
     27 C          62.2962   85.6203   11.2341 C.3     1  UNL1        0.0586
     28 C          62.6434   84.2625   10.6995 C.3     1  UNL1        0.0080
     29 C          61.2226   86.4340   10.5745 C.3     1  UNL1        0.0080
@<TRIPOS>BOND
     1     1     2    1
     2     2     3   ar
     3     3     4   ar
     4     4     7    1
     5     7     8   am
     6     8     9    2
     7     8    10   am
     8    10    11    1
     9    11    12    1
    10    12    13    1
    11    13    14    1
    12    14    16    1
    13    16    17   am
    14    16    18    2
    15     4     5   ar
    16     5     6   ar
    17     6    21    1
    18    21    22   ar
    19    22    23   ar
    20    23    24   ar
    21    24    25   ar
    22    25    27    1
    23    27    28    1
    24    27    29    1
    25    25    26   ar
    26     6     2   ar
    27    26    21   ar
    28    14    10    1
    29     7    15    1
    30    17    19    1
    31    17    20    1
@<TRIPOS>MOLECULE
*****
 29 31 0 0 0
SMALL
GASTEIGER

@<TRIPOS>ATOM
      1 C          63.8770   88.4392   14.8721 C.3     1  UNL1        0.0527
      2 C          63.9353   89.4287   13.7463 C.ar    1  UNL1        0.0688
      3 N          64.4893   90.8205   13.8235 N.ar    1  UNL1       -0.2282
      4 C          64.3463   91.4521   12.4704 C.ar    1  UNL1        0.1664
      5 S          63.7039   90.4506   11.5570 S.2     1  UNL1       -0.0502
      6 C          63.4499   89.2001   12.3455 C.ar    1  UNL1        0.0633
      7 N          64.7710   92.8412   12.0965 N.am    1  UNL1       -0.2483
      8 C          65.8930   93.0457   11.1222 C.2     1  UNL1        0.3094
      9 O          66.5902   91.8610   10.5217 O.2     1  UNL1       -0.2522
     10 N          66.3178   94.4348   10.7482 N.am    1  UNL1       -0.2572
     11 C          65.7178   95.7091   11.2640 C.3     1  UNL1        0.0955
     12 C          66.4463   96.8554   10.6274 C.3     1  UNL1        0.0238
     13 C          67.4966   96.2895    9.7182 C.3     1  UNL1        0.0310
     14 C          67.4172   94.7935    9.7929 C.3     1  UNL1        0.1528
     15 H          64.3135   93.6187   12.4906 H       1  UNL1        0.1583
     16 C          68.2847   93.8261    9.0437 C.2     1  UNL1        0.2375
     17 N          69.3045   93.0080    9.7792 N.am    1  UNL1       -0.3275
     18 O          68.1327   93.6767    7.5589 O.2     1  UNL1       -0.2736
     19 H          69.4043   93.1061   10.7537 H       1  UNL1        0.1450
     20 H          69.8739   92.3731    9.2875 H       1  UNL1        0.1450
     21 C          62.8209   87.9418   11.8246 C.ar    1  UNL1        0.0914
     22 C          63.0301   86.6440   12.5471 C.ar    1  UNL1        0.0404
     23 C          62.4011   85.3859   12.0262 C.ar    1  UNL1        0.1018
     24 N          61.5629   85.4255   10.7829 N.ar    1  UNL1       -0.2292
     25 C          61.3537   86.7233   10.0604 C.ar    1  UNL1        0.1387
     26 N          61.9826   87.9814   10.5813 N.ar    1  UNL1       -0.2301
     27 C          60.5154   86.7629    8.8171 C.3     1  UNL1        0.0586
     28 C          60.7719   85.7859    7.7083 C.3     1  UNL1        0.0080
     29 C          59.4207   87.7795    8.6827 C.3     1  UNL1        0.0080
@<TRIPOS>BOND
     1     1     2    1
     2     2     3   ar
     3     3     4   ar
     4     4     7    1
     5     7     8   am
     6     8     9    2
     7     8    10   am
     8    10    11    1
     9    11    12    1
    10    12    13    1
    11    13    14    1
    12    14    16    1
    13    16    17   am
    14    16    18    2
    15     4     5   ar
    16     5     6   ar
    17     6    21    1
    18    21    22   ar
    19    22    23   ar
    20    23    24   ar
    21    24    25   ar
    22    25    27    1
    23    27    28    1
    24    27    29    1
    25    25    26   ar
    26     6     2   ar
    27    26    21   ar
    28    14    10    1
    29     7    15    1
    30    17    19    1
    31    17    20    1
@<TRIPOS>MOLECULE
*****
 29 31 0 0 0
SMALL
GASTEIGER

@<TRIPOS>ATOM
      1 C          62.6430   89.9448   10.7384 C.3     1  UNL1        0.0527
      2 C          62.9493   88.9312   11.8008 C.ar    1  UNL1        0.0688
      3 N          62.4564   87.5150   11.8364 N.ar    1  UNL1       -0.2282
      4 C          63.0048   86.8642   13.0718 C.ar    1  UNL1        0.1664
      5 S          63.8365   87.8784   13.7996 S.2     1  UNL1       -0.0502
      6 C          63.8022   89.1559   13.0141 C.ar    1  UNL1        0.0633
      7 N          62.7637   85.4481   13.5035 N.am    1  UNL1       -0.2483
      8 C          63.0208   84.3192   12.5497 C.2     1  UNL1        0.3094
      9 O          63.5189   84.6065   11.1643 O.2     1  UNL1       -0.2522
     10 N          62.7797   82.9031   12.9814 N.am    1  UNL1       -0.2572
     11 C          62.2853   82.4638   14.3277 C.3     1  UNL1        0.0955
     12 C          62.1907   80.9668   14.3209 C.3     1  UNL1        0.0238
     13 C          62.6267   80.4809   12.9704 C.3     1  UNL1        0.0310
     14 C          62.9907   81.6776   12.1426 C.3     1  UNL1        0.1528
     15 H          62.4368   85.2595   14.4127 H       1  UNL1        0.1583
     16 C          63.4799   81.6531   10.7248 C.2     1  UNL1        0.2375
     17 N          64.5286   82.6272   10.2762 N.am    1  UNL1       -0.3275
     18 O          62.9203   80.6544    9.7555 O.2     1  UNL1       -0.2736
     19 H          64.8959   83.2827   10.9123 H       1  UNL1        0.1450
     20 H          64.8496   82.6111    9.3457 H       1  UNL1        0.1450
     21 C          64.4986   90.4336   13.3780 C.ar    1  UNL1        0.0914
     22 C          64.7365   90.7739   14.8194 C.ar    1  UNL1        0.0404
     23 C          65.4328   92.0516   15.1833 C.ar    1  UNL1        0.1018
     24 N          65.8913   92.9891   14.1058 N.ar    1  UNL1       -0.2292
     25 C          65.6535   92.6488   12.6644 C.ar    1  UNL1        0.1387
     26 N          64.9571   91.3711   12.3005 N.ar    1  UNL1       -0.2301
     27 C          66.1120   93.5862   11.5869 C.3     1  UNL1        0.0586
     28 C          66.1911   95.0594   11.8582 C.3     1  UNL1        0.0080
     29 C          66.4914   93.0506   10.2382 C.3     1  UNL1        0.0080
@<TRIPOS>BOND
     1     1     2    1
     2     2     3   ar
     3     3     4   ar
     4     4     7    1
     5     7     8   am
     6     8     9    2
     7     8    10   am
     8    10    11    1
     9    11    12    1
    10    12    13    1
    11    13    14    1
    12    14    16    1
    13    16    17   am
    14    16    18    2
    15     4     5   ar
    16     5     6   ar
    17     6    21    1
    18    21    22   ar
    19    22    23   ar
    20    23    24   ar
    21    24    25   ar
    22    25    27    1
    23    27    28    1
    24    27    29    1
    25    25    26   ar
    26     6     2   ar
    27    26    21   ar
    28    14    10    1
    29     7    15    1
    30    17    19    1
    31    17    20    1
@<TRIPOS>MOLECULE
*****
 29 31 0 0 0
SMALL
GASTEIGER

@<TRIPOS>ATOM
      1 C          63.3217   86.3966   16.8993 C.3     1  UNL1        0.0527
      2 C          63.5386   87.0299   15.5569 C.ar    1  UNL1        0.0688
      3 N          63.8606   88.4730   15.3046 N.ar    1  UNL1       -0.2282
      4 C          63.9926   88.6664   13.8229 C.ar    1  UNL1        0.1664
      5 S          63.7521   87.3427   13.1596 S.2     1  UNL1       -0.0502
      6 C          63.4715   86.3313   14.2312 C.ar    1  UNL1        0.0633
      7 N          64.3094   89.9567   13.1269 N.am    1  UNL1       -0.2483
      8 C          65.2651   90.9303   13.7505 C.2     1  UNL1        0.3094
      9 O          65.9039   90.6135   15.0702 O.2     1  UNL1       -0.2522
     10 N          65.5819   92.2207   13.0545 N.am    1  UNL1       -0.2572
     11 C          65.0233   92.6724   11.7377 C.3     1  UNL1        0.0955
     12 C          65.6091   94.0168   11.4224 C.3     1  UNL1        0.0238
     13 C          66.5297   94.3960   12.5444 C.3     1  UNL1        0.0310
     14 C          66.5128   93.2859   13.5531 C.3     1  UNL1        0.1528
     15 H          63.8901   90.1647   12.2608 H       1  UNL1        0.1583
     16 C          67.2904   93.2478   14.8351 C.2     1  UNL1        0.2375
     17 N          66.5746   93.3452   16.1497 N.am    1  UNL1       -0.3275
     18 O          68.7840   93.1123   14.8027 O.2     1  UNL1       -0.2736
     19 H          65.5944   93.4341   16.1711 H       1  UNL1        0.1450
     20 H          67.0851   93.3201   16.9912 H       1  UNL1        0.1450
     21 C          63.1758   84.8767   14.0151 C.ar    1  UNL1        0.0914
     22 C          62.5730   84.0615   15.1206 C.ar    1  UNL1        0.0404
     23 C          62.2773   82.6070   14.9044 C.ar    1  UNL1        0.1018
     24 N          62.5844   81.9675   13.5827 N.ar    1  UNL1       -0.2292
     25 C          63.1872   82.7827   12.4772 C.ar    1  UNL1        0.1387
     26 N          63.4829   84.2372   12.6934 N.ar    1  UNL1       -0.2301
     27 C          63.4943   82.1432   11.1556 C.3     1  UNL1        0.0586
     28 C          64.2441   82.9106   10.1073 C.3     1  UNL1        0.0080
     29 C          63.0515   80.7364   10.8821 C.3     1  UNL1        0.0080
@<TRIPOS>BOND
     1     1     2    1
     2     2     3   ar
     3     3     4   ar
     4     4     7    1
     5     7     8   am
     6     8     9    2
     7     8    10   am
     8    10    11    1
     9    11    12    1
    10    12    13    1
    11    13    14    1
    12    14    16    1
    13    16    17   am
    14    16    18    2
    15     4     5   ar
    16     5     6   ar
    17     6    21    1
    18    21    22   ar
    19    22    23   ar
    20    23    24   ar
    21    24    25   ar
    22    25    27    1
    23    27    28    1
    24    27    29    1
    25    25    26   ar
    26     6     2   ar
    27    26    21   ar
    28    14    10    1
    29     7    15    1
    30    17    19    1
    31    17    20    1
@<TRIPOS>MOLECULE
*****
 29 31 0 0 0
SMALL
GASTEIGER

@<TRIPOS>ATOM
      1 C          62.1439   89.8748   10.2565 C.3     1  UNL1        0.0527
      2 C          62.5477   88.9089   11.3307 C.ar    1  UNL1        0.0688
      3 N          62.0622   87.4969   11.4746 N.ar    1  UNL1       -0.2282
      4 C          62.7222   86.9006   12.6824 C.ar    1  UNL1        0.1664
      5 S          63.6156   87.9441   13.2850 S.2     1  UNL1       -0.0502
      6 C          63.5077   89.1852   12.4495 C.ar    1  UNL1        0.0633
      7 N          62.5236   85.5058   13.1973 N.am    1  UNL1       -0.2483
      8 C          62.8525   84.3305   12.3252 C.2     1  UNL1        0.3094
      9 O          63.3798   84.5501   10.9381 O.2     1  UNL1       -0.2522
     10 N          62.6539   82.9357   12.8400 N.am    1  UNL1       -0.2572
     11 C          62.1373   82.5623   14.1978 C.3     1  UNL1        0.0955
     12 C          62.1013   81.0653   14.2844 C.3     1  UNL1        0.0238
     13 C          62.5956   80.5135   12.9802 C.3     1  UNL1        0.0310
     14 C          62.9371   81.6695   12.0875 C.3     1  UNL1        0.1528
     15 H          62.1775   85.3617   14.1076 H       1  UNL1        0.1583
     16 C          63.4686   81.5757   10.6880 C.2     1  UNL1        0.2375
     17 N          64.5625   82.4979   10.2376 N.am    1  UNL1       -0.3275
     18 O          62.9061   80.5595    9.7386 O.2     1  UNL1       -0.2736
     19 H          64.9317   83.1649   10.8606 H       1  UNL1        0.1450
     20 H          64.9113   82.4363    9.3190 H       1  UNL1        0.1450
     21 C          64.2327   90.4761   12.6907 C.ar    1  UNL1        0.0914
     22 C          64.4280   91.4482   11.5652 C.ar    1  UNL1        0.0404
     23 C          65.1529   92.7390   11.8064 C.ar    1  UNL1        0.1018
     24 N          65.6825   93.0578   13.1731 N.ar    1  UNL1       -0.2292
     25 C          65.4872   92.0856   14.2986 C.ar    1  UNL1        0.1387
     26 N          64.7623   90.7948   14.0574 N.ar    1  UNL1       -0.2301
     27 C          66.0169   92.4044   15.6653 C.3     1  UNL1        0.0586
     28 C          65.1075   92.3380   16.8564 C.3     1  UNL1        0.0080
     29 C          67.4559   92.7894   15.8410 C.3     1  UNL1        0.0080
@<TRIPOS>BOND
     1     1     2    1
     2     2     3   ar
     3     3     4   ar
     4     4     7    1
     5     7     8   am
     6     8     9    2
     7     8    10   am
     8    10    11    1
     9    11    12    1
    10    12    13    1
    11    13    14    1
    12    14    16    1
    13    16    17   am
    14    16    18    2
    15     4     5   ar
    16     5     6   ar
    17     6    21    1
    18    21    22   ar
    19    22    23   ar
    20    23    24   ar
    21    24    25   ar
    22    25    27    1
    23    27    28    1
    24    27    29    1
    25    25    26   ar
    26     6     2   ar
    27    26    21   ar
    28    14    10    1
    29     7    15    1
    30    17    19    1
    31    17    20    1
