@<TRIPOS>MOLECULE
*****
 31 35 0 0 0
SMALL
GASTEIGER

@<TRIPOS>ATOM
      1 C          63.2593   88.0179   12.7442 C.ar    1  UNL1        0.1510
      2 N          62.3459   88.0059   11.5544 N.ar    1  UNL1       -0.2293
      3 C          61.9133   86.7012   10.9541 C.ar    1  UNL1        0.0824
      4 C          62.3942   85.4084   11.5434 C.ar    1  UNL1        0.0378
      5 C          63.3076   85.4203   12.7331 C.ar    1  UNL1        0.0845
      6 C          63.7402   86.7251   13.3335 C.ar    1  UNL1        0.1302
      7 N          64.6395   86.4250   14.4959 N.ar    1  UNL1       -0.2210
      8 C          64.7627   84.9347   14.6139 C.ar    1  UNL1        0.1798
      9 N          63.9396   84.3138   13.5244 N.ar    1  UNL1       -0.2912
     10 C          60.9998   86.6893    9.7643 C.2     1  UNL1        0.0241
     11 C          59.6947   87.4269    9.8133 C.2     1  UNL1        0.0968
     12 N          58.7812   87.4149    8.6235 N.2     1  UNL1       -0.2413
     13 C          59.1730   86.6652    7.3848 C.2     1  UNL1        0.1141
     14 C          60.4782   85.9276    7.3358 C.2     1  UNL1        0.0860
     15 N          61.1277   85.1072    6.2610 N.2     1  UNL1       -0.2463
     16 C          62.4425   84.6121    6.7865 C.2     1  UNL1        0.0947
     17 C          62.6057   85.1266    8.1861 C.2     1  UNL1        0.0047
     18 C          61.3916   85.9396    8.5255 C.3     1  UNL1        0.0904
     19 C          63.5133   90.4548   11.0129 C.3     1  UNL1        0.0241
     20 C          63.8189   90.5411   12.4789 C.3     1  UNL1        0.1039
     21 C          64.2514   91.8459   13.0793 C.3     1  UNL1        0.1618
     22 O          64.5570   91.9322   14.5453 O.3     1  UNL1       -0.3502
     23 C          64.4300   90.7139   15.4109 C.3     1  UNL1        0.1636
     24 C          63.9975   89.4091   14.8105 C.3     1  UNL1        0.1242
     25 N          63.6919   89.3228   13.3445 N.pl3   1  UNL1       -0.2886
     26 C          63.7769   82.8444   13.2709 C.3     1  UNL1        0.2171
     27 C          64.8304   82.0931   12.5121 C.3     1  UNL1        0.0510
     28 S          62.5608   82.1262   13.7761 S.O2    1  UNL1        0.0099
     29 C          61.3447   81.4081   14.2814 C.3     1  UNL1        0.1782
     30 O          62.9292   82.4924   15.1833 O.2     1  UNL1       -0.1712
     31 O          62.1925   81.7600   12.3690 O.2     1  UNL1       -0.1712
@<TRIPOS>BOND
     1    20    19    1
     2    20    21    1
     3    21    22    1
     4    22    23    1
     5    23    24    1
     6    24    25    1
     7    25     1    1
     8     1     2   ar
     9     2     3   ar
    10     3    10    1
    11    10    11    2
    12    11    12    1
    13    12    13    2
    14    13    14    1
    15    14    15    2
    16    15    16    1
    17    16    17    2
    18    17    18    1
    19     3     4   ar
    20     4     5   ar
    21     5     6   ar
    22     6     7   ar
    23     7     8   ar
    24     8     9   ar
    25     9    26    1
    26    26    27    1
    27    26    28    1
    28    28    29    1
    29    28    30    2
    30    28    31    2
    31    25    20    1
    32     6     1   ar
    33    18    10    1
    34     9     5   ar
    35    18    14    1
@<TRIPOS>MOLECULE
*****
 31 35 0 0 0
SMALL
GASTEIGER

@<TRIPOS>ATOM
      1 C          61.8174   87.0346   10.4394 C.ar    1  UNL1        0.1510
      2 N          62.2235   85.9098   11.3450 N.ar    1  UNL1       -0.2293
      3 C          63.0427   86.1912   12.5695 C.ar    1  UNL1        0.0824
      4 C          63.4559   87.5974   12.8886 C.ar    1  UNL1        0.0378
      5 C          63.0499   88.7222   11.9831 C.ar    1  UNL1        0.0845
      6 C          62.2306   88.4408   10.7585 C.ar    1  UNL1        0.1302
      7 N          61.9814   89.7436   10.0581 N.ar    1  UNL1       -0.2210
      8 C          62.6466   90.8302   10.8498 C.ar    1  UNL1        0.1798
      9 N          63.3070   90.1989   12.0396 N.ar    1  UNL1       -0.2912
     10 C          63.4487   85.0664   13.4751 C.2     1  UNL1        0.0241
     11 C          63.9475   85.3602   14.8588 C.2     1  UNL1        0.0968
     12 N          64.3536   84.2354   15.7643 N.2     1  UNL1       -0.2413
     13 C          64.2608   82.8167   15.2860 C.2     1  UNL1        0.1141
     14 C          63.7620   82.5229   13.9022 C.2     1  UNL1        0.0860
     15 N          63.5627   81.2350   13.1596 N.2     1  UNL1       -0.2463
     16 C          63.0335   81.5637   11.7951 C.2     1  UNL1        0.0947
     17 C          62.9057   83.0550   11.6944 C.2     1  UNL1        0.0047
     18 C          63.3560   83.6477   12.9967 C.3     1  UNL1        0.0904
     19 C          62.9188   85.2819    8.2679 C.3     1  UNL1        0.0241
     20 C          61.5488   85.8768    8.1291 C.3     1  UNL1        0.1039
     21 C          60.7295   85.5954    6.9046 C.3     1  UNL1        0.1618
     22 O          59.3595   86.1904    6.7657 O.3     1  UNL1       -0.3502
     23 C          58.8088   87.0667    7.8514 C.3     1  UNL1        0.1636
     24 C          59.6282   87.3481    9.0759 C.3     1  UNL1        0.1242
     25 N          60.9981   86.7532    9.2148 N.pl3   1  UNL1       -0.2886
     26 C          64.0874   90.9181   13.0996 C.3     1  UNL1        0.2171
     27 C          65.0752   91.9790   12.7139 C.3     1  UNL1        0.0510
     28 S          63.8800   90.5764   14.5453 S.O2    1  UNL1        0.0099
     29 C          63.6726   90.2347   15.9911 C.3     1  UNL1        0.1782
     30 O          62.4398   90.2648   14.2651 O.2     1  UNL1       -0.1712
     31 O          65.3203   90.8880   14.8256 O.2     1  UNL1       -0.1712
@<TRIPOS>BOND
     1    20    19    1
     2    20    21    1
     3    21    22    1
     4    22    23    1
     5    23    24    1
     6    24    25    1
     7    25     1    1
     8     1     2   ar
     9     2     3   ar
    10     3    10    1
    11    10    11    2
    12    11    12    1
    13    12    13    2
    14    13    14    1
    15    14    15    2
    16    15    16    1
    17    16    17    2
    18    17    18    1
    19     3     4   ar
    20     4     5   ar
    21     5     6   ar
    22     6     7   ar
    23     7     8   ar
    24     8     9   ar
    25     9    26    1
    26    26    27    1
    27    26    28    1
    28    28    29    1
    29    28    30    2
    30    28    31    2
    31    25    20    1
    32     6     1   ar
    33    18    10    1
    34     9     5   ar
    35    18    14    1
@<TRIPOS>MOLECULE
*****
 31 35 0 0 0
SMALL
GASTEIGER

@<TRIPOS>ATOM
      1 C          61.8478   87.3183   10.5169 C.ar    1  UNL1        0.1510
      2 N          62.2615   86.2260   11.4581 N.ar    1  UNL1       -0.2293
      3 C          63.1177   86.5451   12.6475 C.ar    1  UNL1        0.0824
      4 C          63.5603   87.9566   12.8960 C.ar    1  UNL1        0.0378
      5 C          63.1467   89.0490   11.9549 C.ar    1  UNL1        0.0845
      6 C          62.2904   88.7298   10.7653 C.ar    1  UNL1        0.1302
      7 N          62.0418   90.0060   10.0174 N.ar    1  UNL1       -0.2210
      8 C          62.7443   91.1139   10.7447 C.ar    1  UNL1        0.1798
      9 N          63.4272   90.5224   11.9421 N.ar    1  UNL1       -0.2912
     10 C          63.5313   85.4528   13.5887 C.2     1  UNL1        0.0241
     11 C          63.9822   85.7912   14.9787 C.2     1  UNL1        0.0968
     12 N          64.3959   84.6988   15.9199 N.2     1  UNL1       -0.2413
     13 C          64.3586   83.2681   15.4709 C.2     1  UNL1        0.1141
     14 C          63.9076   82.9297   14.0809 C.2     1  UNL1        0.0860
     15 N          63.7674   81.6207   13.3620 N.2     1  UNL1       -0.2463
     16 C          63.2671   81.9039   11.9766 C.2     1  UNL1        0.0947
     17 C          63.0981   83.3881   11.8392 C.2     1  UNL1        0.0047
     18 C          63.4940   84.0220   13.1398 C.3     1  UNL1        0.0904
     19 C          62.8370   85.4078    8.4260 C.3     1  UNL1        0.0241
     20 C          61.4862   86.0438    8.2819 C.3     1  UNL1        0.1039
     21 C          60.6299   85.7246    7.0925 C.3     1  UNL1        0.1618
     22 O          59.2791   86.3607    6.9484 O.3     1  UNL1       -0.3502
     23 C          58.7845   87.3159    7.9938 C.3     1  UNL1        0.1636
     24 C          59.6408   87.6351    9.1833 C.3     1  UNL1        0.1242
     25 N          60.9916   86.9991    9.3273 N.pl3   1  UNL1       -0.2886
     26 C          64.2466   91.2727   12.9498 C.3     1  UNL1        0.2171
     27 C          64.0683   91.0003   14.4141 C.3     1  UNL1        0.0510
     28 S          65.2444   92.2954   12.4933 S.O2    1  UNL1        0.0099
     29 C          66.2422   93.3182   12.0367 C.3     1  UNL1        0.1782
     30 O          65.4456   92.7333   13.9138 O.2     1  UNL1       -0.1712
     31 O          65.0433   91.8576   11.0728 O.2     1  UNL1       -0.1712
@<TRIPOS>BOND
     1    20    19    1
     2    20    21    1
     3    21    22    1
     4    22    23    1
     5    23    24    1
     6    24    25    1
     7    25     1    1
     8     1     2   ar
     9     2     3   ar
    10     3    10    1
    11    10    11    2
    12    11    12    1
    13    12    13    2
    14    13    14    1
    15    14    15    2
    16    15    16    1
    17    16    17    2
    18    17    18    1
    19     3     4   ar
    20     4     5   ar
    21     5     6   ar
    22     6     7   ar
    23     7     8   ar
    24     8     9   ar
    25     9    26    1
    26    26    27    1
    27    26    28    1
    28    28    29    1
    29    28    30    2
    30    28    31    2
    31    25    20    1
    32     6     1   ar
    33    18    10    1
    34     9     5   ar
    35    18    14    1
@<TRIPOS>MOLECULE
*****
 31 35 0 0 0
SMALL
GASTEIGER

@<TRIPOS>ATOM
      1 C          62.8567   85.2204   12.6653 C.ar    1  UNL1        0.1510
      2 N          62.0328   85.3845   11.4226 N.ar    1  UNL1       -0.2293
      3 C          61.8178   86.7500   10.8402 C.ar    1  UNL1        0.0824
      4 C          62.4267   87.9513   11.5004 C.ar    1  UNL1        0.0378
      5 C          63.2506   87.7872   12.7431 C.ar    1  UNL1        0.0845
      6 C          63.4656   86.4217   13.3255 C.ar    1  UNL1        0.1302
      7 N          64.3188   86.5693   14.5504 N.ar    1  UNL1       -0.2210
      8 C          64.6311   88.0260   14.7249 C.ar    1  UNL1        0.1798
      9 N          63.9709   88.7787   13.6080 N.ar    1  UNL1       -0.2912
     10 C          60.9938   86.9141    9.5975 C.2     1  UNL1        0.0241
     11 C          59.8689   87.9059    9.5691 C.2     1  UNL1        0.0968
     12 N          59.0449   88.0700    8.3264 N.2     1  UNL1       -0.2413
     13 C          59.3460   87.2424    7.1122 C.2     1  UNL1        0.1141
     14 C          60.4710   86.2506    7.1406 C.2     1  UNL1        0.0860
     15 N          60.9995   85.3023    6.1055 N.2     1  UNL1       -0.2463
     16 C          62.1500   84.5521    6.7084 C.2     1  UNL1        0.0947
     17 C          62.3326   85.0367    8.1162 C.2     1  UNL1        0.0047
     18 C          61.2949   86.0865    8.3833 C.3     1  UNL1        0.0904
     19 C          64.4770   83.1885   11.1666 C.3     1  UNL1        0.0241
     20 C          63.8819   82.8389   12.4983 C.3     1  UNL1        0.1039
     21 C          64.0968   81.4734   13.0807 C.3     1  UNL1        0.1618
     22 O          63.5016   81.1239   14.4125 O.3     1  UNL1       -0.3502
     23 C          62.6915   82.1398   15.1618 C.3     1  UNL1        0.1636
     24 C          62.4765   83.5053   14.5794 C.3     1  UNL1        0.1242
     25 N          63.0717   83.8548   13.2477 N.pl3   1  UNL1       -0.2886
     26 C          64.0221   90.2624   13.3936 C.3     1  UNL1        0.2171
     27 C          63.3976   90.8655   12.1704 C.3     1  UNL1        0.0510
     28 S          64.6977   91.1431   14.4025 S.O2    1  UNL1        0.0099
     29 C          65.3734   92.0238   15.4114 C.3     1  UNL1        0.1782
     30 O          63.4452   91.1587   15.2277 O.2     1  UNL1       -0.1712
     31 O          65.9503   91.1275   13.5773 O.2     1  UNL1       -0.1712
@<TRIPOS>BOND
     1    20    19    1
     2    20    21    1
     3    21    22    1
     4    22    23    1
     5    23    24    1
     6    24    25    1
     7    25     1    1
     8     1     2   ar
     9     2     3   ar
    10     3    10    1
    11    10    11    2
    12    11    12    1
    13    12    13    2
    14    13    14    1
    15    14    15    2
    16    15    16    1
    17    16    17    2
    18    17    18    1
    19     3     4   ar
    20     4     5   ar
    21     5     6   ar
    22     6     7   ar
    23     7     8   ar
    24     8     9   ar
    25     9    26    1
    26    26    27    1
    27    26    28    1
    28    28    29    1
    29    28    30    2
    30    28    31    2
    31    25    20    1
    32     6     1   ar
    33    18    10    1
    34     9     5   ar
    35    18    14    1
@<TRIPOS>MOLECULE
*****
 31 35 0 0 0
SMALL
GASTEIGER

@<TRIPOS>ATOM
      1 C          61.9913   87.5834   10.5364 C.ar    1  UNL1        0.1510
      2 N          62.5922   88.9577   10.5527 N.ar    1  UNL1       -0.2293
      3 C          63.4846   89.3727   11.6845 C.ar    1  UNL1        0.0824
      4 C          63.7763   88.4135   12.8002 C.ar    1  UNL1        0.0378
      5 C          63.1755   87.0392   12.7840 C.ar    1  UNL1        0.0845
      6 C          62.2830   86.6241   11.6521 C.ar    1  UNL1        0.1302
      7 N          61.8374   85.2145   11.9060 N.ar    1  UNL1       -0.2210
      8 C          62.4545   84.7584   13.1948 C.ar    1  UNL1        0.1798
      9 N          63.2815   85.8861   13.7375 N.ar    1  UNL1       -0.2912
     10 C          64.0855   90.7471   11.7008 C.2     1  UNL1        0.0241
     11 C          64.0472   91.5971   10.4656 C.2     1  UNL1        0.0968
     12 N          64.6481   92.9714   10.4819 N.2     1  UNL1       -0.2413
     13 C          65.2872   93.4957   11.7335 C.2     1  UNL1        0.1141
     14 C          65.3255   92.6456   12.9688 C.2     1  UNL1        0.0860
     15 N          65.8832   92.8914   14.3394 N.2     1  UNL1       -0.2463
     16 C          65.6270   91.6691   15.1703 C.2     1  UNL1        0.0947
     17 C          64.9110   90.6677   14.3130 C.2     1  UNL1        0.0047
     18 C          64.7247   91.2713   12.9525 C.3     1  UNL1        0.0904
     19 C          62.9289   85.5273    8.5631 C.3     1  UNL1        0.0241
     20 C          61.5676   86.1404    8.4178 C.3     1  UNL1        0.1039
     21 C          60.6751   85.7255    7.2859 C.3     1  UNL1        0.1618
     22 O          59.3138   86.3385    7.1407 O.3     1  UNL1       -0.3502
     23 C          58.8450   87.3665    8.1273 C.3     1  UNL1        0.1636
     24 C          59.7376   87.7814    9.2592 C.3     1  UNL1        0.1242
     25 N          61.0988   87.1684    9.4044 N.pl3   1  UNL1       -0.2886
     26 C          64.0751   85.8644   15.0101 C.3     1  UNL1        0.2171
     27 C          65.5559   85.6289   14.9667 C.3     1  UNL1        0.0510
     28 S          63.3879   86.0783   16.3262 S.O2    1  UNL1        0.0099
     29 C          62.7008   86.2921   17.6423 C.3     1  UNL1        0.1782
     30 O          63.5617   87.5606   16.1761 O.2     1  UNL1       -0.1712
     31 O          63.2141   84.5960   16.4763 O.2     1  UNL1       -0.1712
@<TRIPOS>BOND
     1    20    19    1
     2    20    21    1
     3    21    22    1
     4    22    23    1
     5    23    24    1
     6    24    25    1
     7    25     1    1
     8     1     2   ar
     9     2     3   ar
    10     3    10    1
    11    10    11    2
    12    11    12    1
    13    12    13    2
    14    13    14    1
    15    14    15    2
    16    15    16    1
    17    16    17    2
    18    17    18    1
    19     3     4   ar
    20     4     5   ar
    21     5     6   ar
    22     6     7   ar
    23     7     8   ar
    24     8     9   ar
    25     9    26    1
    26    26    27    1
    27    26    28    1
    28    28    29    1
    29    28    30    2
    30    28    31    2
    31    25    20    1
    32     6     1   ar
    33    18    10    1
    34     9     5   ar
    35    18    14    1
@<TRIPOS>MOLECULE
*****
 31 35 0 0 0
SMALL
GASTEIGER

@<TRIPOS>ATOM
      1 C          63.3342   87.2620   12.5880 C.ar    1  UNL1        0.1510
      2 N          62.8778   87.0817   11.1705 N.ar    1  UNL1       -0.2293
      3 C          62.6220   85.7044   10.6343 C.ar    1  UNL1        0.0824
      4 C          62.8226   84.5073   11.5156 C.ar    1  UNL1        0.0378
      5 C          63.2791   84.6875   12.9330 C.ar    1  UNL1        0.0845
      6 C          63.5349   86.0649   13.4692 C.ar    1  UNL1        0.1302
      7 N          63.9747   85.9322   14.8971 N.ar    1  UNL1       -0.2210
      8 C          63.9908   84.4728   15.2434 C.ar    1  UNL1        0.1798
      9 N          63.5608   83.7035   14.0296 N.ar    1  UNL1       -0.2912
     10 C          62.1655   85.5241    9.2168 C.2     1  UNL1        0.0241
     11 C          62.9860   84.7078    8.2628 C.2     1  UNL1        0.0968
     12 N          62.5295   84.5275    6.8453 N.2     1  UNL1       -0.2413
     13 C          61.2525   85.1636    6.3820 C.2     1  UNL1        0.1141
     14 C          60.4320   85.9799    7.3361 C.2     1  UNL1        0.0860
     15 N          59.1392   86.7217    7.1676 N.2     1  UNL1       -0.2463
     16 C          58.7966   87.3605    8.4809 C.2     1  UNL1        0.0947
     17 C          59.8778   87.0134    9.4611 C.2     1  UNL1        0.0047
     18 C          60.8885   86.1602    8.7536 C.3     1  UNL1        0.0904
     19 C          62.6537   89.6675   10.9295 C.3     1  UNL1        0.0241
     20 C          63.2497   89.8421   12.2949 C.3     1  UNL1        0.1039
     21 C          63.5055   91.2194   12.8311 C.3     1  UNL1        0.1618
     22 O          64.1016   91.3940   14.1964 O.3     1  UNL1       -0.3502
     23 C          64.4419   90.1913   15.0257 C.3     1  UNL1        0.1636
     24 C          64.1861   88.8140   14.4895 C.3     1  UNL1        0.1242
     25 N          63.5900   88.6394   13.1241 N.pl3   1  UNL1       -0.2886
     26 C          63.4348   82.2122   13.9298 C.3     1  UNL1        0.2171
     27 C          64.6586   81.3676   13.7324 C.3     1  UNL1        0.0510
     28 S          62.0850   81.5654   14.0275 S.O2    1  UNL1        0.0099
     29 C          60.7351   80.9187   14.1251 C.3     1  UNL1        0.1782
     30 O          61.6199   82.6720   14.9270 O.2     1  UNL1       -0.1712
     31 O          62.5501   80.4589   13.1279 O.2     1  UNL1       -0.1712
@<TRIPOS>BOND
     1    20    19    1
     2    20    21    1
     3    21    22    1
     4    22    23    1
     5    23    24    1
     6    24    25    1
     7    25     1    1
     8     1     2   ar
     9     2     3   ar
    10     3    10    1
    11    10    11    2
    12    11    12    1
    13    12    13    2
    14    13    14    1
    15    14    15    2
    16    15    16    1
    17    16    17    2
    18    17    18    1
    19     3     4   ar
    20     4     5   ar
    21     5     6   ar
    22     6     7   ar
    23     7     8   ar
    24     8     9   ar
    25     9    26    1
    26    26    27    1
    27    26    28    1
    28    28    29    1
    29    28    30    2
    30    28    31    2
    31    25    20    1
    32     6     1   ar
    33    18    10    1
    34     9     5   ar
    35    18    14    1
@<TRIPOS>MOLECULE
*****
 31 35 0 0 0
SMALL
GASTEIGER

@<TRIPOS>ATOM
      1 C          62.7867   84.8834   12.5159 C.ar    1  UNL1        0.1510
      2 N          62.0145   85.0859   11.2459 N.ar    1  UNL1       -0.2293
      3 C          61.8328   86.4674   10.6908 C.ar    1  UNL1        0.0824
      4 C          62.4233   87.6466   11.4056 C.ar    1  UNL1        0.0378
      5 C          63.1955   87.4442   12.6754 C.ar    1  UNL1        0.0845
      6 C          63.3772   86.0626   13.2306 C.ar    1  UNL1        0.1302
      7 N          64.1817   86.1719   14.4919 N.ar    1  UNL1       -0.2210
      8 C          64.4971   87.6211   14.7163 C.ar    1  UNL1        0.1798
      9 N          63.8877   88.4074   13.5937 N.ar    1  UNL1       -0.2912
     10 C          61.0605   86.6700    9.4209 C.2     1  UNL1        0.0241
     11 C          60.8518   85.5216    8.4788 C.2     1  UNL1        0.0968
     12 N          60.0795   85.7241    7.2088 N.2     1  UNL1       -0.2413
     13 C          59.5160   87.0751    6.8811 C.2     1  UNL1        0.1141
     14 C          59.7248   88.2235    7.8233 C.2     1  UNL1        0.0860
     15 N          59.2913   89.6584    7.7682 N.2     1  UNL1       -0.2463
     16 C          59.7957   90.3428    9.0041 C.2     1  UNL1        0.0947
     17 C          60.5409   89.3307    9.8230 C.2     1  UNL1        0.0047
     18 C          60.4970   88.0209    9.0932 C.3     1  UNL1        0.0904
     19 C          64.6170   82.9435   11.1421 C.3     1  UNL1        0.0241
     20 C          63.8835   82.5319   12.3841 C.3     1  UNL1        0.1039
     21 C          64.0651   81.1503   12.9393 C.3     1  UNL1        0.1618
     22 O          63.3316   80.7386   14.1812 O.3     1  UNL1       -0.3502
     23 C          62.4165   81.7085   14.8681 C.3     1  UNL1        0.1636
     24 C          62.2349   83.0901   14.3130 C.3     1  UNL1        0.1242
     25 N          62.9684   83.5018   13.0710 N.pl3   1  UNL1       -0.2886
     26 C          63.9580   89.8956   13.4198 C.3     1  UNL1        0.2171
     27 C          63.5832   90.5159   12.1065 C.3     1  UNL1        0.0510
     28 S          64.4031   90.7636   14.5593 S.O2    1  UNL1        0.0099
     29 C          64.8482   91.6315   15.6988 C.3     1  UNL1        0.1782
     30 O          65.7354   90.9511   13.8961 O.2     1  UNL1       -0.1712
     31 O          63.0709   90.5761   15.2225 O.2     1  UNL1       -0.1712
@<TRIPOS>BOND
     1    20    19    1
     2    20    21    1
     3    21    22    1
     4    22    23    1
     5    23    24    1
     6    24    25    1
     7    25     1    1
     8     1     2   ar
     9     2     3   ar
    10     3    10    1
    11    10    11    2
    12    11    12    1
    13    12    13    2
    14    13    14    1
    15    14    15    2
    16    15    16    1
    17    16    17    2
    18    17    18    1
    19     3     4   ar
    20     4     5   ar
    21     5     6   ar
    22     6     7   ar
    23     7     8   ar
    24     8     9   ar
    25     9    26    1
    26    26    27    1
    27    26    28    1
    28    28    29    1
    29    28    30    2
    30    28    31    2
    31    25    20    1
    32     6     1   ar
    33    18    10    1
    34     9     5   ar
    35    18    14    1
@<TRIPOS>MOLECULE
*****
 31 35 0 0 0
SMALL
GASTEIGER

@<TRIPOS>ATOM
      1 C          61.8428   87.7287   11.0675 C.ar    1  UNL1        0.1510
      2 N          62.2936   88.8244   11.9874 N.ar    1  UNL1       -0.2293
      3 C          63.1550   88.5021   13.1722 C.ar    1  UNL1        0.0824
      4 C          63.5658   87.0840   13.4373 C.ar    1  UNL1        0.0378
      5 C          63.1150   85.9882   12.5174 C.ar    1  UNL1        0.0845
      6 C          62.2536   86.3106   11.3325 C.ar    1  UNL1        0.1302
      7 N          61.9654   85.0299   10.6067 N.ar    1  UNL1       -0.2210
      8 C          62.6487   83.9160   11.3431 C.ar    1  UNL1        0.1798
      9 N          63.3593   84.5083   12.5239 N.ar    1  UNL1       -0.2912
     10 C          63.6058   89.5978   14.0922 C.2     1  UNL1        0.0241
     11 C          63.2886   89.5258   15.5564 C.2     1  UNL1        0.0968
     12 N          63.7394   90.6215   16.4764 N.2     1  UNL1       -0.2413
     13 C          64.5074   91.7893   15.9319 C.2     1  UNL1        0.1141
     14 C          64.8246   91.8613   14.4676 C.2     1  UNL1        0.0860
     15 N          65.5598   92.8807   13.6489 N.2     1  UNL1       -0.2463
     16 C          65.5634   92.4151   12.2230 C.2     1  UNL1        0.0947
     17 C          64.8304   91.1078   12.1605 C.2     1  UNL1        0.0047
     18 C          64.3738   90.7656   13.5478 C.3     1  UNL1        0.0904
     19 C          61.8291   90.5065    9.9343 C.3     1  UNL1        0.0241
     20 C          60.9745   89.4400    9.3161 C.3     1  UNL1        0.1039
     21 C          60.1130   89.7623    8.1312 C.3     1  UNL1        0.1618
     22 O          59.2583   88.6959    7.5129 O.3     1  UNL1       -0.3502
     23 C          59.2652   87.3070    8.0795 C.3     1  UNL1        0.1636
     24 C          60.1267   86.9847    9.2644 C.3     1  UNL1        0.1242
     25 N          60.9813   88.0511    9.8826 N.pl3   1  UNL1       -0.2886
     26 C          64.1714   83.7531   13.5340 C.3     1  UNL1        0.2171
     27 C          65.2523   84.4539   14.3026 C.3     1  UNL1        0.0510
     28 S          63.9028   82.2973   13.7753 S.O2    1  UNL1        0.0099
     29 C          63.6341   80.8414   14.0167 C.3     1  UNL1        0.1782
     30 O          64.7236   81.9460   12.5700 O.2     1  UNL1       -0.1712
     31 O          63.0819   82.6486   14.9806 O.2     1  UNL1       -0.1712
@<TRIPOS>BOND
     1    20    19    1
     2    20    21    1
     3    21    22    1
     4    22    23    1
     5    23    24    1
     6    24    25    1
     7    25     1    1
     8     1     2   ar
     9     2     3   ar
    10     3    10    1
    11    10    11    2
    12    11    12    1
    13    12    13    2
    14    13    14    1
    15    14    15    2
    16    15    16    1
    17    16    17    2
    18    17    18    1
    19     3     4   ar
    20     4     5   ar
    21     5     6   ar
    22     6     7   ar
    23     7     8   ar
    24     8     9   ar
    25     9    26    1
    26    26    27    1
    27    26    28    1
    28    28    29    1
    29    28    30    2
    30    28    31    2
    31    25    20    1
    32     6     1   ar
    33    18    10    1
    34     9     5   ar
    35    18    14    1
@<TRIPOS>MOLECULE
*****
 31 35 0 0 0
SMALL
GASTEIGER

@<TRIPOS>ATOM
      1 C          62.0630   88.0240   10.8939 C.ar    1  UNL1        0.1510
      2 N          62.7317   89.2447   11.4531 N.ar    1  UNL1       -0.2293
      3 C          63.5954   89.1338   12.6744 C.ar    1  UNL1        0.0824
      4 C          63.7904   87.8021   13.3366 C.ar    1  UNL1        0.0378
      5 C          63.1217   86.5814   12.7775 C.ar    1  UNL1        0.0845
      6 C          62.2580   86.6923   11.5562 C.ar    1  UNL1        0.1302
      7 N          61.7310   85.3251   11.2353 N.ar    1  UNL1       -0.2210
      8 C          62.2690   84.3691   12.2584 C.ar    1  UNL1        0.1798
      9 N          63.1285   85.1455   13.2115 N.ar    1  UNL1       -0.2912
     10 C          64.2641   90.3545   13.2336 C.2     1  UNL1        0.0241
     11 C          64.5091   90.4660   14.7092 C.2     1  UNL1        0.0968
     12 N          65.1779   91.6867   15.2684 N.2     1  UNL1       -0.2413
     13 C          65.6015   92.7960   14.3518 C.2     1  UNL1        0.1141
     14 C          65.3565   92.6845   12.8762 C.2     1  UNL1        0.0860
     15 N          65.6612   93.6096   11.7355 N.2     1  UNL1       -0.2463
     16 C          65.1809   92.9607   10.4713 C.2     1  UNL1        0.0947
     17 C          64.5792   91.6344   10.8307 C.2     1  UNL1        0.0047
     18 C          64.6878   91.4638   12.3171 C.3     1  UNL1        0.0904
     19 C          60.4542   90.5106   10.4153 C.3     1  UNL1        0.0241
     20 C          60.3949   89.3783    9.4333 C.3     1  UNL1        0.1039
     21 C          59.5313   89.4892    8.2119 C.3     1  UNL1        0.1618
     22 O          59.4720   88.3569    7.2299 O.3     1  UNL1       -0.3502
     23 C          60.2763   87.1137    7.4691 C.3     1  UNL1        0.1636
     24 C          61.1399   87.0027    8.6905 C.3     1  UNL1        0.1242
     25 N          61.1992   88.1350    9.6725 N.pl3   1  UNL1       -0.2886
     26 C          63.8654   84.5846   14.3915 C.3     1  UNL1        0.2171
     27 C          64.8322   83.4532   14.2033 C.3     1  UNL1        0.0510
     28 S          63.6355   85.1550   15.7596 S.O2    1  UNL1        0.0099
     29 C          63.4057   85.7255   17.1277 C.3     1  UNL1        0.1782
     30 O          64.9668   85.8433   15.6963 O.2     1  UNL1       -0.1712
     31 O          62.3043   84.4668   15.8229 O.2     1  UNL1       -0.1712
@<TRIPOS>BOND
     1    20    19    1
     2    20    21    1
     3    21    22    1
     4    22    23    1
     5    23    24    1
     6    24    25    1
     7    25     1    1
     8     1     2   ar
     9     2     3   ar
    10     3    10    1
    11    10    11    2
    12    11    12    1
    13    12    13    2
    14    13    14    1
    15    14    15    2
    16    15    16    1
    17    16    17    2
    18    17    18    1
    19     3     4   ar
    20     4     5   ar
    21     5     6   ar
    22     6     7   ar
    23     7     8   ar
    24     8     9   ar
    25     9    26    1
    26    26    27    1
    27    26    28    1
    28    28    29    1
    29    28    30    2
    30    28    31    2
    31    25    20    1
    32     6     1   ar
    33    18    10    1
    34     9     5   ar
    35    18    14    1
