@<TRIPOS>MOLECULE
*****
 23 26 0 0 0
SMALL
GASTEIGER

@<TRIPOS>ATOM
      1 C          63.2121   83.1034   13.8818 C.2     1  UNL1        0.3425
      2 O          61.9466   82.4228   14.3122 O.2     1  UNL1       -0.2448
      3 C          61.6501   86.2435   10.5030 C.2     1  UNL1        0.1207
      4 C          62.2491   85.9900    9.1514 C.2     1  UNL1        0.0342
      5 C          63.2192   84.8619    8.9606 C.2     1  UNL1        0.0216
      6 C          63.5903   83.9874   10.1213 C.2     1  UNL1        0.0781
      7 N          64.5118   82.8094   10.2363 N.2     1  UNL1       -0.2439
      8 C          64.4823   82.3349   11.6590 C.2     1  UNL1        0.1050
      9 C          63.5426   83.2196   12.4233 C.2     1  UNL1        0.0926
     10 C          62.9913   84.2409   11.4729 C.2     1  UNL1        0.0108
     11 C          62.0212   85.3689   11.6638 C.3     1  UNL1        0.0919
     12 C          60.6220   88.4881    9.6940 C.3     1  UNL1        0.2520
     13 O          60.6800   87.3715   10.6939 O.2     1  UNL1       -0.4753
     14 O          64.1472   83.6678   14.9099 O.3     1  UNL1       -0.4454
     15 C          64.7896   85.0046   14.6860 C.3     1  UNL1        0.2087
     16 C          64.2169   86.2301   15.3342 C.3     1  UNL1        0.0445
     17 C          64.4005   87.5734   14.6924 C.3     1  UNL1        0.0210
     18 C          63.8277   88.7989   15.3406 C.3     1  UNL1        0.0722
     19 N          63.0713   88.6810   16.6305 N.3     1  UNL1       -0.2727
     20 C          62.8876   87.3377   17.2723 C.3     1  UNL1        0.0722
     21 C          63.4604   86.1123   16.6241 C.3     1  UNL1        0.0210
     22 C          63.3668   87.9812   16.3129 C.3     1  UNL1        0.0722
     23 C          63.8848   86.8732   15.7268 C.3     1  UNL1        0.0210
@<TRIPOS>BOND
     1    12    13    1
     2    13     3    1
     3     3     4    2
     4     4     5    1
     5     5     6    2
     6     6     7    1
     7     7     8    2
     8     8     9    1
     9     9     1    1
    10     1     2    2
    11     1    14    1
    12    14    15    1
    13    15    16    1
    14    16    17    1
    15    17    18    1
    16    18    19    1
    17    19    20    1
    18    20    21    1
    19    19    22    1
    20    22    23    1
    21     9    10    2
    22    10    11    1
    23    11     3    1
    24    10     6    1
    25    21    16    1
    26    23    16    1
@<TRIPOS>MOLECULE
*****
 23 26 0 0 0
SMALL
GASTEIGER

@<TRIPOS>ATOM
      1 C          63.3894   83.8286   14.0542 C.2     1  UNL1        0.3425
      2 O          63.3677   82.6006   14.9153 O.2     1  UNL1       -0.2448
      3 C          61.6398   86.3462   10.2704 C.2     1  UNL1        0.1207
      4 C          62.1967   85.8844    8.9564 C.2     1  UNL1        0.0342
      5 C          63.1846   84.7564    8.9153 C.2     1  UNL1        0.0216
      6 C          63.6156   84.0902   10.1882 C.2     1  UNL1        0.0781
      7 N          64.5668   82.9623   10.4586 N.2     1  UNL1       -0.2439
      8 C          64.5978   82.7270   11.9397 C.2     1  UNL1        0.1050
      9 C          63.6658   83.7095   12.5848 C.2     1  UNL1        0.0926
     10 C          63.0588   84.5520   11.5022 C.2     1  UNL1        0.0108
     11 C          62.0709   85.6800   11.5433 C.3     1  UNL1        0.0919
     12 C          61.0085   88.8053    9.7192 C.3     1  UNL1        0.2520
     13 O          60.6519   87.4742   10.3115 O.2     1  UNL1       -0.4753
     14 O          63.1345   85.1758   14.6626 O.3     1  UNL1       -0.4454
     15 C          64.2713   86.1321   14.8705 C.3     1  UNL1        0.2087
     16 C          63.9925   87.5789   15.1513 C.3     1  UNL1        0.0445
     17 C          63.3790   87.9846   16.4586 C.3     1  UNL1        0.0210
     18 C          63.1002   89.4314   16.7394 C.3     1  UNL1        0.0722
     19 N          63.4349   90.4726   15.7129 N.3     1  UNL1       -0.2727
     20 C          64.0484   90.0670   14.4056 C.3     1  UNL1        0.0722
     21 C          64.3272   88.6201   14.1248 C.3     1  UNL1        0.0210
     22 C          63.6061   89.6923   15.5137 C.3     1  UNL1        0.0722
     23 C          63.8581   88.3840   15.2599 C.3     1  UNL1        0.0210
@<TRIPOS>BOND
     1    12    13    1
     2    13     3    1
     3     3     4    2
     4     4     5    1
     5     5     6    2
     6     6     7    1
     7     7     8    2
     8     8     9    1
     9     9     1    1
    10     1     2    2
    11     1    14    1
    12    14    15    1
    13    15    16    1
    14    16    17    1
    15    17    18    1
    16    18    19    1
    17    19    20    1
    18    20    21    1
    19    19    22    1
    20    22    23    1
    21     9    10    2
    22    10    11    1
    23    11     3    1
    24    10     6    1
    25    21    16    1
    26    23    16    1
@<TRIPOS>MOLECULE
*****
 23 26 0 0 0
SMALL
GASTEIGER

@<TRIPOS>ATOM
      1 C          64.0449   88.2137   15.0965 C.2     1  UNL1        0.3425
      2 O          63.2626   88.2625   16.3755 O.2     1  UNL1       -0.2448
      3 C          62.4395   89.1164   10.5883 C.2     1  UNL1        0.1207
      4 C          62.7830   90.4971   10.1136 C.2     1  UNL1        0.0342
      5 C          63.5448   91.4298   11.0079 C.2     1  UNL1        0.0216
      6 C          63.9630   90.9818   12.3769 C.2     1  UNL1        0.0781
      7 N          64.7170   91.6746   13.4730 N.2     1  UNL1       -0.2439
      8 C          64.8395   90.7220   14.6252 C.2     1  UNL1        0.1050
      9 C          64.1611   89.4404   14.2412 C.2     1  UNL1        0.0926
     10 C          63.6194   89.6010   12.8516 C.2     1  UNL1        0.0108
     11 C          62.8577   88.6683   11.9573 C.3     1  UNL1        0.0919
     12 C          60.3641   87.6175   10.1454 C.3     1  UNL1        0.2520
     13 O          61.6777   88.1836    9.6940 O.2     1  UNL1       -0.4753
     14 O          64.7109   86.9382   14.6729 O.3     1  UNL1       -0.4454
     15 C          63.9436   85.6494   14.6913 C.3     1  UNL1        0.2087
     16 C          63.7601   84.8676   13.4244 C.3     1  UNL1        0.0445
     17 C          64.5797   83.6357   13.1779 C.3     1  UNL1        0.0210
     18 C          64.3961   82.8539   11.9110 C.3     1  UNL1        0.0722
     19 N          63.3930   83.3039   10.8906 N.3     1  UNL1       -0.2727
     20 C          62.5734   84.5358   11.1371 C.3     1  UNL1        0.0722
     21 C          62.7570   85.3176   12.4040 C.3     1  UNL1        0.0210
     22 C          63.4581   83.7649   11.5697 C.3     1  UNL1        0.0722
     23 C          63.6241   84.4719   12.7153 C.3     1  UNL1        0.0210
@<TRIPOS>BOND
     1    12    13    1
     2    13     3    1
     3     3     4    2
     4     4     5    1
     5     5     6    2
     6     6     7    1
     7     7     8    2
     8     8     9    1
     9     9     1    1
    10     1     2    2
    11     1    14    1
    12    14    15    1
    13    15    16    1
    14    16    17    1
    15    17    18    1
    16    18    19    1
    17    19    20    1
    18    20    21    1
    19    19    22    1
    20    22    23    1
    21     9    10    2
    22    10    11    1
    23    11     3    1
    24    10     6    1
    25    21    16    1
    26    23    16    1
@<TRIPOS>MOLECULE
*****
 23 26 0 0 0
SMALL
GASTEIGER

@<TRIPOS>ATOM
      1 C          62.7401   85.1021   14.9018 C.2     1  UNL1        0.3425
      2 O          61.3559   84.8333   15.4134 O.2     1  UNL1       -0.2448
      3 C          62.4685   85.5571   10.0607 C.2     1  UNL1        0.1207
      4 C          63.1985   84.4682    9.3318 C.2     1  UNL1        0.0342
      5 C          63.9084   83.3950   10.1026 C.2     1  UNL1        0.0216
      6 C          63.8882   83.4106   11.6024 C.2     1  UNL1        0.0781
      7 N          64.4925   82.4933   12.6239 N.2     1  UNL1       -0.2439
      8 C          64.1360   83.0153   13.9842 C.2     1  UNL1        0.1050
      9 C          63.3113   84.2552   13.8034 C.2     1  UNL1        0.0926
     10 C          63.1582   84.4994   12.3313 C.2     1  UNL1        0.0108
     11 C          62.4484   85.5727   11.5605 C.3     1  UNL1        0.0919
     12 C          61.0536   87.7357   10.0187 C.3     1  UNL1        0.2520
     13 O          61.7587   86.6304    9.2899 O.2     1  UNL1       -0.4753
     14 O          63.5530   86.2179   15.4885 O.3     1  UNL1       -0.4454
     15 C          64.5330   86.9629   14.6314 C.3     1  UNL1        0.2087
     16 C          64.2242   88.3595   14.1796 C.3     1  UNL1        0.0445
     17 C          63.5515   88.5889   12.8587 C.3     1  UNL1        0.0210
     18 C          63.2427   89.9855   12.4069 C.3     1  UNL1        0.0722
     19 N          63.6066   91.1527   13.2760 N.3     1  UNL1       -0.2727
     20 C          64.2792   90.9232   14.5969 C.3     1  UNL1        0.0722
     21 C          64.5880   89.5266   15.0488 C.3     1  UNL1        0.0210
     22 C          63.7959   90.4057   13.5661 C.3     1  UNL1        0.0722
     23 C          64.0751   89.1429   13.9746 C.3     1  UNL1        0.0210
@<TRIPOS>BOND
     1    12    13    1
     2    13     3    1
     3     3     4    2
     4     4     5    1
     5     5     6    2
     6     6     7    1
     7     7     8    2
     8     8     9    1
     9     9     1    1
    10     1     2    2
    11     1    14    1
    12    14    15    1
    13    15    16    1
    14    16    17    1
    15    17    18    1
    16    18    19    1
    17    19    20    1
    18    20    21    1
    19    19    22    1
    20    22    23    1
    21     9    10    2
    22    10    11    1
    23    11     3    1
    24    10     6    1
    25    21    16    1
    26    23    16    1
@<TRIPOS>MOLECULE
*****
 23 26 0 0 0
SMALL
GASTEIGER

@<TRIPOS>ATOM
      1 C          61.1737   87.3003   10.6396 C.2     1  UNL1        0.3425
      2 O          59.7910   87.5591   10.1189 O.2     1  UNL1       -0.2448
      3 C          63.4617   83.5388   12.7212 C.2     1  UNL1        0.1207
      4 C          64.1900   82.6798   11.7305 C.2     1  UNL1        0.0342
      5 C          64.1576   83.0257   10.2712 C.2     1  UNL1        0.0216
      6 C          63.3969   84.2306    9.8028 C.2     1  UNL1        0.0781
      7 N          63.1864   84.8167    8.4382 N.2     1  UNL1       -0.2439
      8 C          62.3280   86.0380    8.5855 C.2     1  UNL1        0.1050
      9 C          62.0079   86.2066   10.0412 C.2     1  UNL1        0.0926
     10 C          62.6686   85.0896   10.7935 C.2     1  UNL1        0.0108
     11 C          62.7009   84.7437   12.2527 C.3     1  UNL1        0.0919
     12 C          62.5448   83.8606   15.1307 C.3     1  UNL1        0.2520
     13 O          63.4940   83.1929   14.1804 O.2     1  UNL1       -0.4753
     14 O          61.7223   88.1351   11.7586 O.3     1  UNL1       -0.4454
     15 C          61.5851   89.6282   11.7173 C.3     1  UNL1        0.2087
     16 C          62.8069   90.4958   11.7846 C.3     1  UNL1        0.0445
     17 C          63.2850   91.2144   10.5578 C.3     1  UNL1        0.0210
     18 C          64.5068   92.0820   10.6250 C.3     1  UNL1        0.0722
     19 N          65.2505   92.2310   11.9191 N.3     1  UNL1       -0.2727
     20 C          64.7724   91.5124   13.1460 C.3     1  UNL1        0.0722
     21 C          63.5506   90.6448   13.0787 C.3     1  UNL1        0.0210
     22 C          64.5862   91.7446   11.9313 C.3     1  UNL1        0.0722
     23 C          63.4815   90.9601   11.8704 C.3     1  UNL1        0.0210
@<TRIPOS>BOND
     1    12    13    1
     2    13     3    1
     3     3     4    2
     4     4     5    1
     5     5     6    2
     6     6     7    1
     7     7     8    2
     8     8     9    1
     9     9     1    1
    10     1     2    2
    11     1    14    1
    12    14    15    1
    13    15    16    1
    14    16    17    1
    15    17    18    1
    16    18    19    1
    17    19    20    1
    18    20    21    1
    19    19    22    1
    20    22    23    1
    21     9    10    2
    22    10    11    1
    23    11     3    1
    24    10     6    1
    25    21    16    1
    26    23    16    1
@<TRIPOS>MOLECULE
*****
 23 26 0 0 0
SMALL
GASTEIGER

@<TRIPOS>ATOM
      1 C          63.6000   89.7816   15.5971 C.2     1  UNL1        0.3425
      2 O          63.1719   90.5167   16.8326 O.2     1  UNL1       -0.2448
      3 C          62.0030   90.0723   11.0056 C.2     1  UNL1        0.1207
      4 C          62.8540   90.9616   10.1485 C.2     1  UNL1        0.0342
      5 C          64.0521   91.6465   10.7361 C.2     1  UNL1        0.0216
      6 C          64.3993   91.4421   12.1810 C.2     1  UNL1        0.0781
      7 N          65.5107   91.9807   13.0322 N.2     1  UNL1       -0.2439
      8 C          65.3466   91.4242   14.4155 C.2     1  UNL1        0.1050
      9 C          64.1337   90.5417   14.4192 C.2     1  UNL1        0.0926
     10 C          63.5482   90.5528   13.0382 C.2     1  UNL1        0.0108
     11 C          62.3501   89.8679   12.4505 C.3     1  UNL1        0.0919
     12 C          60.5483   87.9395   10.7140 C.3     1  UNL1        0.2520
     13 O          60.8048   89.3874   10.4180 O.2     1  UNL1       -0.4753
     14 O          63.4943   88.2865   15.5394 O.3     1  UNL1       -0.4454
     15 C          64.4625   87.4976   14.7087 C.3     1  UNL1        0.2087
     16 C          64.0880   86.1316   14.2151 C.3     1  UNL1        0.0445
     17 C          63.3379   85.9799   12.9250 C.3     1  UNL1        0.0210
     18 C          62.9633   84.6139   12.4313 C.3     1  UNL1        0.0722
     19 N          63.3389   83.3996   13.2277 N.3     1  UNL1       -0.2727
     20 C          64.0890   83.5512   14.5178 C.3     1  UNL1        0.0722
     21 C          64.4635   84.9172   15.0115 C.3     1  UNL1        0.0210
     22 C          63.5660   84.1273   13.5387 C.3     1  UNL1        0.0722
     23 C          63.9046   85.3625   13.9851 C.3     1  UNL1        0.0210
@<TRIPOS>BOND
     1    12    13    1
     2    13     3    1
     3     3     4    2
     4     4     5    1
     5     5     6    2
     6     6     7    1
     7     7     8    2
     8     8     9    1
     9     9     1    1
    10     1     2    2
    11     1    14    1
    12    14    15    1
    13    15    16    1
    14    16    17    1
    15    17    18    1
    16    18    19    1
    17    19    20    1
    18    20    21    1
    19    19    22    1
    20    22    23    1
    21     9    10    2
    22    10    11    1
    23    11     3    1
    24    10     6    1
    25    21    16    1
    26    23    16    1
@<TRIPOS>MOLECULE
*****
 23 26 0 0 0
SMALL
GASTEIGER

@<TRIPOS>ATOM
      1 C          63.4908   89.5262   15.6147 C.2     1  UNL1        0.3425
      2 O          63.2070   90.3334   16.8467 O.2     1  UNL1       -0.2448
      3 C          66.6100   93.0713   14.4231 C.2     1  UNL1        0.1207
      4 C          66.5183   93.4663   12.9790 C.2     1  UNL1        0.0342
      5 C          65.5362   92.7818   12.0751 C.2     1  UNL1        0.0216
      6 C          64.6458   91.7023   12.6153 C.2     1  UNL1        0.0781
      7 N          63.5893   90.8558   11.9694 N.2     1  UNL1       -0.2439
      8 C          63.0281   89.9376   13.0143 C.2     1  UNL1        0.1050
      9 C          63.7376   90.2166   14.3061 C.2     1  UNL1        0.0926
     10 C          64.7375   91.3073   14.0594 C.2     1  UNL1        0.0108
     11 C          65.7196   91.9918   14.9633 C.3     1  UNL1        0.0919
     12 C          68.9497   93.1579   15.5493 C.3     1  UNL1        0.2520
     13 O          67.5921   93.7557   15.3270 O.2     1  UNL1       -0.4753
     14 O          63.5277   88.0286   15.6912 O.3     1  UNL1       -0.4454
     15 C          64.4648   87.2555   14.8114 C.3     1  UNL1        0.2087
     16 C          64.0700   85.9010   14.3023 C.3     1  UNL1        0.0445
     17 C          63.3545   85.7722   12.9902 C.3     1  UNL1        0.0210
     18 C          62.9596   84.4176   12.4811 C.3     1  UNL1        0.0722
     19 N          63.2802   83.1919   13.2841 N.3     1  UNL1       -0.2727
     20 C          63.9957   83.3207   14.5961 C.3     1  UNL1        0.0722
     21 C          64.3906   84.6752   15.1052 C.3     1  UNL1        0.0210
     22 C          63.5167   83.9127   13.6041 C.3     1  UNL1        0.0722
     23 C          63.8737   85.1375   14.0644 C.3     1  UNL1        0.0210
@<TRIPOS>BOND
     1    12    13    1
     2    13     3    1
     3     3     4    2
     4     4     5    1
     5     5     6    2
     6     6     7    1
     7     7     8    2
     8     8     9    1
     9     9     1    1
    10     1     2    2
    11     1    14    1
    12    14    15    1
    13    15    16    1
    14    16    17    1
    15    17    18    1
    16    18    19    1
    17    19    20    1
    18    20    21    1
    19    19    22    1
    20    22    23    1
    21     9    10    2
    22    10    11    1
    23    11     3    1
    24    10     6    1
    25    21    16    1
    26    23    16    1
@<TRIPOS>MOLECULE
*****
 23 26 0 0 0
SMALL
GASTEIGER

@<TRIPOS>ATOM
      1 C          62.5078   85.4198    9.2930 C.2     1  UNL1        0.3425
      2 O          63.1396   84.7949    8.0846 O.2     1  UNL1       -0.2448
      3 C          62.1348   89.6278   11.7159 C.2     1  UNL1        0.1207
      4 C          61.0148   90.4907   11.2150 C.2     1  UNL1        0.0342
      5 C          60.1543   90.0189   10.0806 C.2     1  UNL1        0.0216
      6 C          60.4137   88.6843    9.4471 C.2     1  UNL1        0.0781
      7 N          59.7376   87.9590    8.3216 N.2     1  UNL1       -0.2439
      8 C          60.4397   86.6479    8.1269 C.2     1  UNL1        0.1050
      9 C          61.5498   86.5628    9.1320 C.2     1  UNL1        0.0926
     10 C          61.5337   87.8214    9.9480 C.2     1  UNL1        0.0108
     11 C          62.3943   88.2931   11.0824 C.3     1  UNL1        0.0919
     12 C          63.9464   91.2413   12.6458 C.3     1  UNL1        0.2520
     13 O          62.9954   90.0995   12.8504 O.2     1  UNL1       -0.4753
     14 O          62.8339   84.9018   10.6625 O.3     1  UNL1       -0.4454
     15 C          63.4009   83.5230   10.8274 C.3     1  UNL1        0.2087
     16 C          63.0023   82.6840   12.0053 C.3     1  UNL1        0.0445
     17 C          62.8556   81.1990   11.8531 C.3     1  UNL1        0.0210
     18 C          62.4570   80.3601   13.0309 C.3     1  UNL1        0.0722
     19 N          62.2051   81.0062   14.3609 N.3     1  UNL1       -0.2727
     20 C          62.3518   82.4912   14.5132 C.3     1  UNL1        0.0722
     21 C          62.7504   83.3302   13.3353 C.3     1  UNL1        0.0210
     22 C          62.4214   81.5072   13.7444 C.3     1  UNL1        0.0722
     23 C          62.7819   82.2658   12.6794 C.3     1  UNL1        0.0210
@<TRIPOS>BOND
     1    12    13    1
     2    13     3    1
     3     3     4    2
     4     4     5    1
     5     5     6    2
     6     6     7    1
     7     7     8    2
     8     8     9    1
     9     9     1    1
    10     1     2    2
    11     1    14    1
    12    14    15    1
    13    15    16    1
    14    16    17    1
    15    17    18    1
    16    18    19    1
    17    19    20    1
    18    20    21    1
    19    19    22    1
    20    22    23    1
    21     9    10    2
    22    10    11    1
    23    11     3    1
    24    10     6    1
    25    21    16    1
    26    23    16    1
@<TRIPOS>MOLECULE
*****
 23 26 0 0 0
SMALL
GASTEIGER

@<TRIPOS>ATOM
      1 C          62.2132   85.8933   11.2450 C.2     1  UNL1        0.3425
      2 O          62.3969   84.8254   10.2077 O.2     1  UNL1       -0.2448
      3 C          64.0009   89.9680   13.2241 C.2     1  UNL1        0.1207
      4 C          63.6095   91.2028   12.4679 C.2     1  UNL1        0.0342
      5 C          62.7536   91.0913   11.2411 C.2     1  UNL1        0.0216
      6 C          62.2891   89.7449   10.7706 C.2     1  UNL1        0.0781
      7 N          61.4431   89.3259    9.6049 N.2     1  UNL1       -0.2439
      8 C          61.3117   87.8320    9.6408 C.2     1  UNL1        0.1050
      9 C          62.0765   87.3278   10.8285 C.2     1  UNL1        0.0926
     10 C          62.6805   88.5101   11.5268 C.2     1  UNL1        0.0108
     11 C          63.5365   88.6216   12.7536 C.3     1  UNL1        0.0919
     12 C          65.8725   91.1780   14.5594 C.3     1  UNL1        0.2520
     13 O          64.8569   90.0796   14.4509 O.2     1  UNL1       -0.4753
     14 O          62.1662   85.5266   12.6987 O.3     1  UNL1       -0.4454
     15 C          63.1323   84.5204   13.2501 C.3     1  UNL1        0.2087
     16 C          62.7879   83.0606   13.2299 C.3     1  UNL1        0.0445
     17 C          61.9464   82.4734   14.3240 C.3     1  UNL1        0.0210
     18 C          61.6020   81.0136   14.3039 C.3     1  UNL1        0.0722
     19 N          62.0992   80.1410   13.1897 N.3     1  UNL1       -0.2727
     20 C          62.9407   80.7283   12.0956 C.3     1  UNL1        0.0722
     21 C          63.2851   82.1880   12.1157 C.3     1  UNL1        0.0210
     22 C          62.3139   80.9353   13.1578 C.3     1  UNL1        0.0722
     23 C          62.6252   82.2553   13.1760 C.3     1  UNL1        0.0210
@<TRIPOS>BOND
     1    12    13    1
     2    13     3    1
     3     3     4    2
     4     4     5    1
     5     5     6    2
     6     6     7    1
     7     7     8    2
     8     8     9    1
     9     9     1    1
    10     1     2    2
    11     1    14    1
    12    14    15    1
    13    15    16    1
    14    16    17    1
    15    17    18    1
    16    18    19    1
    17    19    20    1
    18    20    21    1
    19    19    22    1
    20    22    23    1
    21     9    10    2
    22    10    11    1
    23    11     3    1
    24    10     6    1
    25    21    16    1
    26    23    16    1
