@<TRIPOS>MOLECULE
*****
 34 36 0 0 0
SMALL
GASTEIGER

@<TRIPOS>ATOM
      1 N          63.4751   91.1184   12.6196 N.ar    1  UNL1       -0.2498
      2 C          64.2065   91.1008   13.9291 C.ar    1  UNL1        0.2093
      3 N          65.5851   91.6839   14.0261 N.ar    1  UNL1       -0.1604
      4 C          66.2322   92.2848   12.8136 C.ar    1  UNL1        0.3558
      5 O          67.6109   92.8680   12.9107 O.2     1  UNL1       -0.2442
      6 N          65.5009   92.3025   11.5041 N.ar    1  UNL1       -0.2325
      7 C          64.1223   91.7193   11.4071 C.ar    1  UNL1        0.3372
      8 O          63.3909   91.7370   10.0976 O.2     1  UNL1       -0.2461
      9 N          63.5593   90.4999   15.1416 N.pl3   1  UNL1       -0.2836
     10 H          63.0826   91.0762   15.7817 H       1  UNL1        0.1550
     11 C          63.6385   89.0209   15.3787 C.ar    1  UNL1        0.0515
     12 C          64.2962   88.1328   14.3645 C.ar    1  UNL1        0.0178
     13 C          64.3753   86.6537   14.6016 C.ar    1  UNL1        0.0390
     14 C          63.7967   86.0628   15.8530 C.ar    1  UNL1        0.1489
     15 C          63.1390   86.9509   16.8673 C.ar    1  UNL1        0.0927
     16 CL         62.5604   86.3600   18.1187 Cl      1  UNL1       -0.0790
     17 C          63.0599   88.4299   16.6301 C.ar    1  UNL1        0.0291
     18 O          63.8759   84.5838   16.0902 O.3     1  UNL1       -0.4783
     19 C          63.5833   83.6282   14.9716 C.3     1  UNL1        0.1662
     20 C          62.2628   82.9187   14.9174 C.3     1  UNL1        0.0472
     21 C          64.6112   83.3820   13.9073 C.3     1  UNL1        0.0472
     22 C          62.0965   90.5352   12.5226 C.3     1  UNL1        0.1399
     23 C          60.8911   86.3558    8.3899 C.3     1  UNL1        0.0310
     24 C          61.1925   87.4006    9.4231 C.ar    1  UNL1       -0.0219
     25 C          62.2240   87.1354   10.4793 C.ar    1  UNL1       -0.0045
     26 C          62.5253   88.1803   11.5125 C.ar    1  UNL1       -0.0027
     27 C          61.7952   89.4904   11.4894 C.ar    1  UNL1        0.0006
     28 C          60.7637   89.7556   10.4332 C.ar    1  UNL1       -0.0027
     29 C          60.4623   88.7107    9.4000 C.ar    1  UNL1       -0.0045
     30 C          66.1481   92.9034   10.2917 C.3     1  UNL1        0.1210
     31 C          66.2692   94.3933   10.1668 C.3     1  UNL1        0.0665
     32 C          67.4795   94.9956    9.5170 C.2     1  UNL1        0.0523
     33 O          67.4214   96.3917    8.9713 O.co2   1  UNL1       -0.5491
     34 O          68.7480   94.2018    9.4127 O.co2   1  UNL1       -0.5491
@<TRIPOS>UNITY_ATOM_ATTR
33 1
charge -1
@<TRIPOS>BOND
     1    23    24    1
     2    24    25   ar
     3    25    26   ar
     4    26    27   ar
     5    27    22    1
     6    22     1    1
     7     1     2   ar
     8     2     9    1
     9     9    11    1
    10    11    12   ar
    11    12    13   ar
    12    13    14   ar
    13    14    18    1
    14    18    19    1
    15    19    20    1
    16    19    21    1
    17    14    15   ar
    18    15    16    1
    19    15    17   ar
    20     2     3   ar
    21     3     4   ar
    22     4     5    2
    23     4     6   ar
    24     6    30    1
    25    30    31    1
    26    31    32    1
    27    32    33   ar
    28    32    34   ar
    29     6     7   ar
    30     7     8    2
    31    27    28   ar
    32    28    29   ar
    33    29    24   ar
    34     7     1   ar
    35    17    11   ar
    36     9    10    1
@<TRIPOS>MOLECULE
*****
 34 36 0 0 0
SMALL
GASTEIGER

@<TRIPOS>ATOM
      1 N          62.3123   86.9731   11.8286 N.ar    1  UNL1       -0.2498
      2 C          62.8784   88.0946   12.6485 C.ar    1  UNL1        0.2093
      3 N          63.8241   87.7974   13.7742 N.ar    1  UNL1       -0.1604
      4 C          64.2038   86.3789   14.0801 C.ar    1  UNL1        0.3558
      5 O          65.1496   86.0818   15.2059 O.2     1  UNL1       -0.2442
      6 N          63.6378   85.2575   13.2604 N.ar    1  UNL1       -0.2325
      7 C          62.6920   85.5546   12.1346 C.ar    1  UNL1        0.3372
      8 O          62.1260   84.4332   11.3148 O.2     1  UNL1       -0.2461
      9 N          62.4987   89.5131   12.3425 N.pl3   1  UNL1       -0.2836
     10 H          61.5495   89.7721   12.3083 H       1  UNL1        0.1550
     11 C          63.5651   90.5369   12.0888 C.ar    1  UNL1        0.0515
     12 C          63.6840   91.1769   10.7374 C.ar    1  UNL1        0.0178
     13 C          64.7505   92.2008   10.4836 C.ar    1  UNL1        0.0390
     14 C          65.6981   92.5846   11.5813 C.ar    1  UNL1        0.1489
     15 C          65.5792   91.9445   12.9326 C.ar    1  UNL1        0.0927
     16 CL         66.5267   92.3283   14.0303 Cl      1  UNL1       -0.0790
     17 C          64.5127   90.9207   13.1864 C.ar    1  UNL1        0.0291
     18 O          66.7645   93.6084   11.3275 O.3     1  UNL1       -0.4783
     19 C          67.5607   93.5630   10.0570 C.3     1  UNL1        0.1662
     20 C          67.5751   94.7486    9.1382 C.3     1  UNL1        0.0472
     21 C          68.3424   92.3321    9.7053 C.3     1  UNL1        0.0472
     22 C          61.3666   87.2703   10.7029 C.3     1  UNL1        0.1399
     23 C          61.7857   84.2258    5.5497 C.3     1  UNL1        0.0310
     24 C          61.6809   84.9869    6.8380 C.ar    1  UNL1       -0.0219
     25 C          60.3543   85.5254    7.2852 C.ar    1  UNL1       -0.0045
     26 C          60.2495   86.2866    8.5735 C.ar    1  UNL1       -0.0027
     27 C          61.4714   86.5092    9.4146 C.ar    1  UNL1        0.0006
     28 C          62.7980   85.9707    8.9674 C.ar    1  UNL1       -0.0027
     29 C          62.9028   85.2095    7.6791 C.ar    1  UNL1       -0.0045
     30 C          64.0175   83.8390   13.5663 C.3     1  UNL1        0.1210
     31 C          63.0978   82.9745   14.3769 C.3     1  UNL1        0.0665
     32 C          62.4161   81.8004   13.7392 C.2     1  UNL1        0.0523
     33 O          61.1682   81.2350   14.3501 O.co2   1  UNL1       -0.5491
     34 O          62.9822   81.1916   12.4907 O.co2   1  UNL1       -0.5491
@<TRIPOS>UNITY_ATOM_ATTR
33 1
charge -1
@<TRIPOS>BOND
     1    23    24    1
     2    24    25   ar
     3    25    26   ar
     4    26    27   ar
     5    27    22    1
     6    22     1    1
     7     1     2   ar
     8     2     9    1
     9     9    11    1
    10    11    12   ar
    11    12    13   ar
    12    13    14   ar
    13    14    18    1
    14    18    19    1
    15    19    20    1
    16    19    21    1
    17    14    15   ar
    18    15    16    1
    19    15    17   ar
    20     2     3   ar
    21     3     4   ar
    22     4     5    2
    23     4     6   ar
    24     6    30    1
    25    30    31    1
    26    31    32    1
    27    32    33   ar
    28    32    34   ar
    29     6     7   ar
    30     7     8    2
    31    27    28   ar
    32    28    29   ar
    33    29    24   ar
    34     7     1   ar
    35    17    11   ar
    36     9    10    1
@<TRIPOS>MOLECULE
*****
 34 36 0 0 0
SMALL
GASTEIGER

@<TRIPOS>ATOM
      1 N          62.4503   87.0398   11.7610 N.ar    1  UNL1       -0.2498
      2 C          63.2258   88.0674   12.5310 C.ar    1  UNL1        0.2093
      3 N          64.0231   87.6590   13.7341 N.ar    1  UNL1       -0.1604
      4 C          64.0449   86.2231   14.1673 C.ar    1  UNL1        0.3558
      5 O          64.8422   85.8147   15.3705 O.2     1  UNL1       -0.2442
      6 N          63.2694   85.1955   13.3974 N.ar    1  UNL1       -0.2325
      7 C          62.4721   85.6039   12.1942 C.ar    1  UNL1        0.3372
      8 O          61.6966   84.5764   11.4243 O.2     1  UNL1       -0.2461
      9 N          63.2040   89.5033   12.0977 N.pl3   1  UNL1       -0.2836
     10 H          62.6231   89.7844   11.3543 H       1  UNL1        0.1550
     11 C          64.0673   90.5109   12.7972 C.ar    1  UNL1        0.0515
     12 C          64.3058   90.3980   14.2738 C.ar    1  UNL1        0.0178
     13 C          65.1692   91.4057   14.9733 C.ar    1  UNL1        0.0390
     14 C          65.7940   92.5262   14.1962 C.ar    1  UNL1        0.1489
     15 C          65.5556   92.6391   12.7196 C.ar    1  UNL1        0.0927
     16 CL         66.1804   93.7596   11.9425 Cl      1  UNL1       -0.0790
     17 C          64.6922   91.6315   12.0201 C.ar    1  UNL1        0.0291
     18 O          66.6574   93.5338   14.8957 O.3     1  UNL1       -0.4783
     19 C          68.1033   93.2311   15.1555 C.3     1  UNL1        0.1662
     20 C          68.7555   92.0568   14.4877 C.3     1  UNL1        0.0472
     21 C          68.8972   94.1025   16.0830 C.3     1  UNL1        0.0472
     22 C          61.6530   87.4482   10.5579 C.3     1  UNL1        0.1399
     23 C          61.7616   84.0715    5.5994 C.3     1  UNL1        0.0310
     24 C          61.7345   84.9156    6.8390 C.ar    1  UNL1       -0.0219
     25 C          62.9888   85.1177    7.6365 C.ar    1  UNL1       -0.0045
     26 C          62.9616   85.9619    8.8761 C.ar    1  UNL1       -0.0027
     27 C          61.6802   86.6040    9.3183 C.ar    1  UNL1        0.0006
     28 C          60.4259   86.4019    8.5208 C.ar    1  UNL1       -0.0027
     29 C          60.4531   85.5578    7.2812 C.ar    1  UNL1       -0.0045
     30 C          63.2912   83.7596   13.8306 C.3     1  UNL1        0.1210
     31 C          64.0399   82.7431   13.0205 C.3     1  UNL1        0.0665
     32 C          63.6018   81.3085   13.0269 C.2     1  UNL1        0.0523
     33 O          62.8934   80.7353   11.8354 O.co2   1  UNL1       -0.5491
     34 O          63.8719   80.4472   14.2249 O.co2   1  UNL1       -0.5491
@<TRIPOS>UNITY_ATOM_ATTR
33 1
charge -1
@<TRIPOS>BOND
     1    23    24    1
     2    24    25   ar
     3    25    26   ar
     4    26    27   ar
     5    27    22    1
     6    22     1    1
     7     1     2   ar
     8     2     9    1
     9     9    11    1
    10    11    12   ar
    11    12    13   ar
    12    13    14   ar
    13    14    18    1
    14    18    19    1
    15    19    20    1
    16    19    21    1
    17    14    15   ar
    18    15    16    1
    19    15    17   ar
    20     2     3   ar
    21     3     4   ar
    22     4     5    2
    23     4     6   ar
    24     6    30    1
    25    30    31    1
    26    31    32    1
    27    32    33   ar
    28    32    34   ar
    29     6     7   ar
    30     7     8    2
    31    27    28   ar
    32    28    29   ar
    33    29    24   ar
    34     7     1   ar
    35    17    11   ar
    36     9    10    1
@<TRIPOS>MOLECULE
*****
 34 36 0 0 0
SMALL
GASTEIGER

@<TRIPOS>ATOM
      1 N          61.2346   88.8926   10.7473 N.ar    1  UNL1       -0.2498
      2 C          61.8601   87.5292   10.7566 C.ar    1  UNL1        0.2093
      3 N          61.5612   86.5593    9.6521 N.ar    1  UNL1       -0.1604
      4 C          60.6368   86.9528    8.5382 C.ar    1  UNL1        0.3558
      5 O          60.3379   85.9828    7.4337 O.2     1  UNL1       -0.2442
      6 N          60.0113   88.3161    8.5289 N.ar    1  UNL1       -0.2325
      7 C          60.3102   89.2860    9.6334 C.ar    1  UNL1        0.3372
      8 O          59.6848   90.6493    9.6241 O.2     1  UNL1       -0.2461
      9 N          62.7845   87.1357   11.8705 N.pl3   1  UNL1       -0.2836
     10 H          63.2655   87.8282   12.3788 H       1  UNL1        0.1550
     11 C          62.9760   85.6873   12.2099 C.ar    1  UNL1        0.0515
     12 C          62.6439   84.6298   11.1992 C.ar    1  UNL1        0.0178
     13 C          62.8354   83.1813   11.5387 C.ar    1  UNL1        0.0390
     14 C          63.3591   82.7903   12.8888 C.ar    1  UNL1        0.1489
     15 C          63.6913   83.8477   13.8995 C.ar    1  UNL1        0.0927
     16 CL         64.2150   83.4567   15.2496 Cl      1  UNL1       -0.0790
     17 C          63.4998   85.2962   13.5600 C.ar    1  UNL1        0.0291
     18 O          63.5506   81.3418   13.2282 O.3     1  UNL1       -0.4783
     19 C          62.3584   80.4638   13.4685 C.3     1  UNL1        0.1662
     20 C          61.1408   81.0209   14.1447 C.3     1  UNL1        0.0472
     21 C          62.3838   79.0288   13.0326 C.3     1  UNL1        0.0472
     22 C          61.5336   89.8624   11.8518 C.3     1  UNL1        0.1399
     23 C          66.6093   93.0602   11.7444 C.3     1  UNL1        0.0310
     24 C          65.3403   92.2607   11.7713 C.ar    1  UNL1       -0.0219
     25 C          64.5345   92.0906   10.5177 C.ar    1  UNL1       -0.0045
     26 C          63.2655   91.2911   10.5445 C.ar    1  UNL1       -0.0027
     27 C          62.8025   90.6619   11.8250 C.ar    1  UNL1        0.0006
     28 C          63.6084   90.8321   13.0786 C.ar    1  UNL1       -0.0027
     29 C          64.8773   91.6315   13.0517 C.ar    1  UNL1       -0.0045
     30 C          59.0869   88.7095    7.4150 C.3     1  UNL1        0.1210
     31 C          59.6029   89.5203    6.2632 C.3     1  UNL1        0.0665
     32 C          58.7543   90.6059    5.6705 C.2     1  UNL1        0.0523
     33 O          59.3974   91.7393    4.9276 O.co2   1  UNL1       -0.5491
     34 O          57.2626   90.5582    5.8208 O.co2   1  UNL1       -0.5491
@<TRIPOS>UNITY_ATOM_ATTR
33 1
charge -1
@<TRIPOS>BOND
     1    23    24    1
     2    24    25   ar
     3    25    26   ar
     4    26    27   ar
     5    27    22    1
     6    22     1    1
     7     1     2   ar
     8     2     9    1
     9     9    11    1
    10    11    12   ar
    11    12    13   ar
    12    13    14   ar
    13    14    18    1
    14    18    19    1
    15    19    20    1
    16    19    21    1
    17    14    15   ar
    18    15    16    1
    19    15    17   ar
    20     2     3   ar
    21     3     4   ar
    22     4     5    2
    23     4     6   ar
    24     6    30    1
    25    30    31    1
    26    31    32    1
    27    32    33   ar
    28    32    34   ar
    29     6     7   ar
    30     7     8    2
    31    27    28   ar
    32    28    29   ar
    33    29    24   ar
    34     7     1   ar
    35    17    11   ar
    36     9    10    1
@<TRIPOS>MOLECULE
*****
 34 36 0 0 0
SMALL
GASTEIGER

@<TRIPOS>ATOM
      1 N          63.8165   90.7793   13.9436 N.ar    1  UNL1       -0.2498
      2 C          63.0376   90.5226   12.6876 C.ar    1  UNL1        0.2093
      3 N          63.4572   91.1674   11.3999 N.ar    1  UNL1       -0.1604
      4 C          64.6556   92.0689   11.3681 C.ar    1  UNL1        0.3558
      5 O          65.0751   92.7138   10.0804 O.2     1  UNL1       -0.2442
      6 N          65.4345   92.3257   12.6241 N.ar    1  UNL1       -0.2325
      7 C          65.0149   91.6808   13.9118 C.ar    1  UNL1        0.3372
      8 O          65.7938   91.9376   15.1678 O.2     1  UNL1       -0.2461
      9 N          61.8392   89.6211   12.7193 N.pl3   1  UNL1       -0.2836
     10 H          61.2431   89.6220   13.5029 H       1  UNL1        0.1550
     11 C          61.5489   88.7181   11.5573 C.ar    1  UNL1        0.0515
     12 C          62.0006   87.2880   11.5876 C.ar    1  UNL1        0.0178
     13 C          61.7104   86.3851   10.4255 C.ar    1  UNL1        0.0390
     14 C          60.9684   86.9121    9.2332 C.ar    1  UNL1        0.1489
     15 C          60.5167   88.3422    9.2029 C.ar    1  UNL1        0.0927
     16 CL         59.7748   88.8693    8.0106 Cl      1  UNL1       -0.0790
     17 C          60.8069   89.2452   10.3649 C.ar    1  UNL1        0.0291
     18 O          60.6782   86.0091    8.0712 O.3     1  UNL1       -0.4783
     19 C          61.7896   85.2341    7.4277 C.3     1  UNL1        0.1662
     20 C          61.5522   84.5192    6.1305 C.3     1  UNL1        0.0472
     21 C          63.1383   85.1739    8.0814 C.3     1  UNL1        0.0472
     22 C          63.3970   90.1345   15.2313 C.3     1  UNL1        0.1399
     23 C          64.0805   84.2218   15.9878 C.3     1  UNL1        0.0310
     24 C          63.9096   85.7000   15.7987 C.ar    1  UNL1       -0.0219
     25 C          64.4651   86.3688   14.5764 C.ar    1  UNL1       -0.0045
     26 C          64.2942   87.8470   14.3873 C.ar    1  UNL1       -0.0027
     27 C          63.5678   88.6563   15.4204 C.ar    1  UNL1        0.0006
     28 C          63.0123   87.9874   16.6427 C.ar    1  UNL1       -0.0027
     29 C          63.1832   86.5092   16.8318 C.ar    1  UNL1       -0.0045
     30 C          66.6329   93.2272   12.5923 C.3     1  UNL1        0.1210
     31 C          66.4518   94.7118   12.4778 C.3     1  UNL1        0.0665
     32 C          66.4765   95.3686   11.1295 C.2     1  UNL1        0.0523
     33 O          65.4229   96.3721   10.7646 O.co2   1  UNL1       -0.5491
     34 O          67.5547   95.0220   10.1461 O.co2   1  UNL1       -0.5491
@<TRIPOS>UNITY_ATOM_ATTR
33 1
charge -1
@<TRIPOS>BOND
     1    23    24    1
     2    24    25   ar
     3    25    26   ar
     4    26    27   ar
     5    27    22    1
     6    22     1    1
     7     1     2   ar
     8     2     9    1
     9     9    11    1
    10    11    12   ar
    11    12    13   ar
    12    13    14   ar
    13    14    18    1
    14    18    19    1
    15    19    20    1
    16    19    21    1
    17    14    15   ar
    18    15    16    1
    19    15    17   ar
    20     2     3   ar
    21     3     4   ar
    22     4     5    2
    23     4     6   ar
    24     6    30    1
    25    30    31    1
    26    31    32    1
    27    32    33   ar
    28    32    34   ar
    29     6     7   ar
    30     7     8    2
    31    27    28   ar
    32    28    29   ar
    33    29    24   ar
    34     7     1   ar
    35    17    11   ar
    36     9    10    1
@<TRIPOS>MOLECULE
*****
 34 36 0 0 0
SMALL
GASTEIGER

@<TRIPOS>ATOM
      1 N          63.0132   88.2330   12.3311 N.ar    1  UNL1       -0.2498
      2 C          62.4239   89.5920   12.0946 C.ar    1  UNL1        0.2093
      3 N          61.3391   89.7719   11.0744 N.ar    1  UNL1       -0.1604
      4 C          60.8435   88.5929   10.2907 C.ar    1  UNL1        0.3558
      5 O          59.7586   88.7728    9.2705 O.2     1  UNL1       -0.2442
      6 N          61.4327   87.2339   10.5272 N.ar    1  UNL1       -0.2325
      7 C          62.5176   87.0539   11.5474 C.ar    1  UNL1        0.3372
      8 O          63.1068   85.6949   11.7838 O.2     1  UNL1       -0.2461
      9 N          62.9195   90.7711   12.8783 N.pl3   1  UNL1       -0.2836
     10 H          62.4848   91.0159   13.7270 H       1  UNL1        0.1550
     11 C          64.0774   91.5771   12.3689 C.ar    1  UNL1        0.0515
     12 C          64.1607   91.9340   10.9143 C.ar    1  UNL1        0.0178
     13 C          65.3187   92.7400   10.4049 C.ar    1  UNL1        0.0390
     14 C          66.3933   93.1892   11.3501 C.ar    1  UNL1        0.1489
     15 C          66.3101   92.8323   12.8046 C.ar    1  UNL1        0.0927
     16 CL         67.3847   93.2815   13.7498 Cl      1  UNL1       -0.0790
     17 C          65.1522   92.0263   13.3140 C.ar    1  UNL1        0.0291
     18 O          67.5513   93.9952   10.8407 O.3     1  UNL1       -0.4783
     19 C          67.9757   93.8752    9.4070 C.3     1  UNL1        0.1662
     20 C          67.6565   94.9730    8.4359 C.3     1  UNL1        0.0472
     21 C          68.7192   92.6574    8.9443 C.3     1  UNL1        0.0472
     22 C          64.0980   88.0531   13.3512 C.3     1  UNL1        0.1399
     23 C          62.6819   86.8445   19.0551 C.3     1  UNL1        0.0310
     24 C          63.0359   87.1467   17.6291 C.ar    1  UNL1       -0.0219
     25 C          63.3921   86.0308   16.6922 C.ar    1  UNL1       -0.0045
     26 C          63.7461   86.3329   15.2662 C.ar    1  UNL1       -0.0027
     27 C          63.7440   87.7509   14.7772 C.ar    1  UNL1        0.0006
     28 C          63.3879   88.8668   15.7142 C.ar    1  UNL1       -0.0027
     29 C          63.0339   88.5647   17.1401 C.ar    1  UNL1       -0.0045
     30 C          60.9371   86.0548    9.7435 C.3     1  UNL1        0.1210
     31 C          61.4510   85.8067    8.3563 C.3     1  UNL1        0.0665
     32 C          60.4903   85.5187    7.2409 C.2     1  UNL1        0.0523
     33 O          60.8459   84.5140    6.1853 O.co2   1  UNL1       -0.5491
     34 O          59.1740   86.2354    7.1810 O.co2   1  UNL1       -0.5491
@<TRIPOS>UNITY_ATOM_ATTR
33 1
charge -1
@<TRIPOS>BOND
     1    23    24    1
     2    24    25   ar
     3    25    26   ar
     4    26    27   ar
     5    27    22    1
     6    22     1    1
     7     1     2   ar
     8     2     9    1
     9     9    11    1
    10    11    12   ar
    11    12    13   ar
    12    13    14   ar
    13    14    18    1
    14    18    19    1
    15    19    20    1
    16    19    21    1
    17    14    15   ar
    18    15    16    1
    19    15    17   ar
    20     2     3   ar
    21     3     4   ar
    22     4     5    2
    23     4     6   ar
    24     6    30    1
    25    30    31    1
    26    31    32    1
    27    32    33   ar
    28    32    34   ar
    29     6     7   ar
    30     7     8    2
    31    27    28   ar
    32    28    29   ar
    33    29    24   ar
    34     7     1   ar
    35    17    11   ar
    36     9    10    1
@<TRIPOS>MOLECULE
*****
 34 36 0 0 0
SMALL
GASTEIGER

@<TRIPOS>ATOM
      1 N          63.7754   90.5009   14.0855 N.ar    1  UNL1       -0.2498
      2 C          63.0009   90.5128   12.8009 C.ar    1  UNL1        0.2093
      3 N          63.5126   91.2890   11.6237 N.ar    1  UNL1       -0.1604
      4 C          64.7989   92.0532   11.7311 C.ar    1  UNL1        0.3558
      5 O          65.3106   92.8294   10.5539 O.2     1  UNL1       -0.2442
      6 N          65.5733   92.0413   13.0156 N.ar    1  UNL1       -0.2325
      7 C          65.0616   91.2651   14.1928 C.ar    1  UNL1        0.3372
      8 O          65.8361   91.2532   15.4773 O.2     1  UNL1       -0.2461
      9 N          61.7147   89.7485   12.6935 N.pl3   1  UNL1       -0.2836
     10 H          61.0274   89.8409   13.3923 H       1  UNL1        0.1550
     11 C          61.4756   88.8435   11.5214 C.ar    1  UNL1        0.0515
     12 C          61.9466   87.4200   11.5647 C.ar    1  UNL1        0.0178
     13 C          61.7075   86.5150   10.3925 C.ar    1  UNL1        0.0390
     14 C          60.9975   87.0335    9.1772 C.ar    1  UNL1        0.1489
     15 C          60.5265   88.4570    9.1340 C.ar    1  UNL1        0.0927
     16 CL         59.8165   88.9754    7.9187 Cl      1  UNL1       -0.0790
     17 C          60.7656   89.3620   10.3060 C.ar    1  UNL1        0.0291
     18 O          60.7584   86.1285    8.0052 O.3     1  UNL1       -0.4783
     19 C          61.8827   85.3027    7.4536 C.3     1  UNL1        0.1662
     20 C          61.7028   84.5560    6.1651 C.3     1  UNL1        0.0472
     21 C          63.1868   85.2236    8.1905 C.3     1  UNL1        0.0472
     22 C          63.2636   89.7247   15.2626 C.3     1  UNL1        0.1399
     23 C          64.3559   83.8398   15.6800 C.3     1  UNL1        0.0310
     24 C          64.0829   85.3110   15.5756 C.ar    1  UNL1       -0.0219
     25 C          64.5227   86.0711   14.3596 C.ar    1  UNL1       -0.0045
     26 C          64.2496   87.5423   14.2552 C.ar    1  UNL1       -0.0027
     27 C          63.5367   88.2535   15.3669 C.ar    1  UNL1        0.0006
     28 C          63.0969   87.4934   16.5830 C.ar    1  UNL1       -0.0027
     29 C          63.3700   86.0222   16.6873 C.ar    1  UNL1       -0.0045
     30 C          66.8596   92.8056   13.1230 C.3     1  UNL1        0.1210
     31 C          67.0797   93.7457   14.2710 C.3     1  UNL1        0.0665
     32 C          68.2014   93.5009   15.2363 C.2     1  UNL1        0.0523
     33 O          68.9004   92.1738   15.2530 O.co2   1  UNL1       -0.5491
     34 O          68.6241   94.5832   16.1850 O.co2   1  UNL1       -0.5491
@<TRIPOS>UNITY_ATOM_ATTR
33 1
charge -1
@<TRIPOS>BOND
     1    23    24    1
     2    24    25   ar
     3    25    26   ar
     4    26    27   ar
     5    27    22    1
     6    22     1    1
     7     1     2   ar
     8     2     9    1
     9     9    11    1
    10    11    12   ar
    11    12    13   ar
    12    13    14   ar
    13    14    18    1
    14    18    19    1
    15    19    20    1
    16    19    21    1
    17    14    15   ar
    18    15    16    1
    19    15    17   ar
    20     2     3   ar
    21     3     4   ar
    22     4     5    2
    23     4     6   ar
    24     6    30    1
    25    30    31    1
    26    31    32    1
    27    32    33   ar
    28    32    34   ar
    29     6     7   ar
    30     7     8    2
    31    27    28   ar
    32    28    29   ar
    33    29    24   ar
    34     7     1   ar
    35    17    11   ar
    36     9    10    1
@<TRIPOS>MOLECULE
*****
 34 36 0 0 0
SMALL
GASTEIGER

@<TRIPOS>ATOM
      1 N          62.5510   87.1480   11.8564 N.ar    1  UNL1       -0.2498
      2 C          62.3483   88.6329   11.9199 C.ar    1  UNL1        0.2093
      3 N          61.4330   89.3074   10.9416 N.ar    1  UNL1       -0.1604
      4 C          60.7204   88.4971    9.8997 C.ar    1  UNL1        0.3558
      5 O          59.8051   89.1717    8.9213 O.2     1  UNL1       -0.2442
      6 N          60.9231   87.0123    9.8362 N.ar    1  UNL1       -0.2325
      7 C          61.8384   86.3377   10.8145 C.ar    1  UNL1        0.3372
      8 O          62.0411   84.8528   10.7510 O.2     1  UNL1       -0.2461
      9 N          63.0609   89.4432   12.9618 N.pl3   1  UNL1       -0.2836
     10 H          62.9118   89.2574   13.9171 H       1  UNL1        0.1550
     11 C          64.0008   90.5366   12.5483 C.ar    1  UNL1        0.0515
     12 C          63.8524   91.1846   11.2037 C.ar    1  UNL1        0.0178
     13 C          64.7924   92.2781   10.7902 C.ar    1  UNL1        0.0390
     14 C          65.8807   92.7235   11.7214 C.ar    1  UNL1        0.1489
     15 C          66.0291   92.0755   13.0660 C.ar    1  UNL1        0.0927
     16 CL         67.1175   92.5209   13.9972 Cl      1  UNL1       -0.0790
     17 C          65.0892   90.9821   13.4795 C.ar    1  UNL1        0.0291
     18 O          66.8206   93.8169   11.3079 O.3     1  UNL1       -0.4783
     19 C          67.5359   93.7333    9.9921 C.3     1  UNL1        0.1662
     20 C          67.5315   94.9086    9.0600 C.3     1  UNL1        0.0472
     21 C          68.2557   92.4745    9.6084 C.3     1  UNL1        0.0472
     22 C          63.4663   86.4735   12.8348 C.3     1  UNL1        0.1399
     23 C          62.9610   80.5806   13.8443 C.3     1  UNL1        0.0310
     24 C          63.0873   82.0538   13.5919 C.ar    1  UNL1       -0.0219
     25 C          62.2223   83.0207   14.3449 C.ar    1  UNL1       -0.0045
     26 C          62.3486   84.4939   14.0925 C.ar    1  UNL1       -0.0027
     27 C          63.3400   85.0003   13.0872 C.ar    1  UNL1        0.0006
     28 C          64.2050   84.0334   12.3342 C.ar    1  UNL1       -0.0027
     29 C          64.0786   82.5602   12.5866 C.ar    1  UNL1       -0.0045
     30 C          60.2104   86.2019    8.7943 C.3     1  UNL1        0.1210
     31 C          60.7375   86.1549    7.3906 C.3     1  UNL1        0.0665
     32 C          61.6084   85.0142    6.9544 C.2     1  UNL1        0.0523
     33 O          62.9450   84.8012    7.6011 O.co2   1  UNL1       -0.5491
     34 O          61.1429   84.0866    5.8715 O.co2   1  UNL1       -0.5491
@<TRIPOS>UNITY_ATOM_ATTR
33 1
charge -1
@<TRIPOS>BOND
     1    23    24    1
     2    24    25   ar
     3    25    26   ar
     4    26    27   ar
     5    27    22    1
     6    22     1    1
     7     1     2   ar
     8     2     9    1
     9     9    11    1
    10    11    12   ar
    11    12    13   ar
    12    13    14   ar
    13    14    18    1
    14    18    19    1
    15    19    20    1
    16    19    21    1
    17    14    15   ar
    18    15    16    1
    19    15    17   ar
    20     2     3   ar
    21     3     4   ar
    22     4     5    2
    23     4     6   ar
    24     6    30    1
    25    30    31    1
    26    31    32    1
    27    32    33   ar
    28    32    34   ar
    29     6     7   ar
    30     7     8    2
    31    27    28   ar
    32    28    29   ar
    33    29    24   ar
    34     7     1   ar
    35    17    11   ar
    36     9    10    1
@<TRIPOS>MOLECULE
*****
 34 36 0 0 0
SMALL
GASTEIGER

@<TRIPOS>ATOM
      1 N          63.1249   90.3918   12.2797 N.ar    1  UNL1       -0.2498
      2 C          63.9552   89.9668   13.4545 C.ar    1  UNL1        0.2093
      3 N          65.3274   90.5401   13.6497 N.ar    1  UNL1       -0.1604
      4 C          65.8694   91.5386   12.6702 C.ar    1  UNL1        0.3558
      5 O          67.2418   92.1119   12.8654 O.2     1  UNL1       -0.2442
      6 N          65.0392   91.9636   11.4955 N.ar    1  UNL1       -0.2325
      7 C          63.6669   91.3902   11.3002 C.ar    1  UNL1        0.3372
      8 O          62.8366   91.8153   10.1255 O.2     1  UNL1       -0.2461
      9 N          63.4132   88.9684   14.4340 N.pl3   1  UNL1       -0.2836
     10 H          62.8934   89.2744   15.2120 H       1  UNL1        0.1550
     11 C          63.6632   87.5038   14.2280 C.ar    1  UNL1        0.0515
     12 C          64.4342   86.7234   15.2510 C.ar    1  UNL1        0.0178
     13 C          64.6842   85.2588   15.0450 C.ar    1  UNL1        0.0390
     14 C          64.1632   84.5746   13.8160 C.ar    1  UNL1        0.1489
     15 C          63.3921   85.3550   12.7930 C.ar    1  UNL1        0.0927
     16 CL         62.8711   84.6708   11.5641 Cl      1  UNL1       -0.0790
     17 C          63.1421   86.8195   12.9990 C.ar    1  UNL1        0.0291
     18 O          64.4132   83.1100   13.6101 O.3     1  UNL1       -0.4783
     19 C          63.2814   82.1324   13.7257 C.3     1  UNL1        0.1662
     20 C          63.2921   80.8728   12.9111 C.3     1  UNL1        0.0472
     21 C          62.1389   82.4143   14.6558 C.3     1  UNL1        0.0472
     22 C          61.7526   89.8185   12.0845 C.3     1  UNL1        0.1399
     23 C          60.7631   85.8253    7.7170 C.3     1  UNL1        0.0310
     24 C          61.0104   86.8236    8.8088 C.ar    1  UNL1       -0.0219
     25 C          62.4126   87.2417    9.1393 C.ar    1  UNL1       -0.0045
     26 C          62.6600   88.2400   10.2312 C.ar    1  UNL1       -0.0027
     27 C          61.5052   88.8202   10.9926 C.ar    1  UNL1        0.0006
     28 C          60.1031   88.4021   10.6622 C.ar    1  UNL1       -0.0027
     29 C          59.8557   87.4038    9.5703 C.ar    1  UNL1       -0.0045
     30 C          65.5812   92.9620   10.5160 C.3     1  UNL1        0.1210
     31 C          65.7792   94.3895   10.9321 C.3     1  UNL1        0.0665
     32 C          66.9003   95.1937   10.3435 C.2     1  UNL1        0.0523
     33 O          68.0613   94.4995    9.6950 O.co2   1  UNL1       -0.5491
     34 O          66.8606   96.6919   10.4033 O.co2   1  UNL1       -0.5491
@<TRIPOS>UNITY_ATOM_ATTR
33 1
charge -1
@<TRIPOS>BOND
     1    23    24    1
     2    24    25   ar
     3    25    26   ar
     4    26    27   ar
     5    27    22    1
     6    22     1    1
     7     1     2   ar
     8     2     9    1
     9     9    11    1
    10    11    12   ar
    11    12    13   ar
    12    13    14   ar
    13    14    18    1
    14    18    19    1
    15    19    20    1
    16    19    21    1
    17    14    15   ar
    18    15    16    1
    19    15    17   ar
    20     2     3   ar
    21     3     4   ar
    22     4     5    2
    23     4     6   ar
    24     6    30    1
    25    30    31    1
    26    31    32    1
    27    32    33   ar
    28    32    34   ar
    29     6     7   ar
    30     7     8    2
    31    27    28   ar
    32    28    29   ar
    33    29    24   ar
    34     7     1   ar
    35    17    11   ar
    36     9    10    1
