@<TRIPOS>MOLECULE
*****
 28 30 0 0 0
SMALL
GASTEIGER

@<TRIPOS>ATOM
      1 C          63.2835   83.3049   13.1048 C.ar    1  UNL1        0.0529
      2 C          62.6490   84.5712   13.5986 C.ar    1  UNL1        0.0057
      3 C          62.2879   85.6569   12.6287 C.ar    1  UNL1        0.0144
      4 C          62.5613   85.4764   11.1649 C.ar    1  UNL1        0.0440
      5 C          63.1957   84.2101   10.6711 C.ar    1  UNL1       -0.0087
      6 C          63.5568   83.1243   11.6411 C.ar    1  UNL1        0.0015
      7 C          63.4691   84.0294    9.2073 C.3     1  UNL1        0.0294
      8 C          63.1080   85.1152    8.2374 C.3     1  UNL1        0.0261
      9 C          62.4735   86.3815    8.7313 C.3     1  UNL1        0.0914
     10 N          62.2002   86.5621   10.1950 N.pl3   1  UNL1       -0.3038
     11 N          63.4170   80.7820   13.7106 N.am    1  UNL1       -0.3253
     12 C          63.6446   82.2191   14.0748 C.2     1  UNL1        0.2427
     13 O          64.2333   82.5706   15.4089 O.2     1  UNL1       -0.2704
     14 H          63.6540   80.0694   14.3472 H       1  UNL1        0.1453
     15 H          63.0306   80.5513   12.8350 H       1  UNL1        0.1453
     16 C          61.5657   87.8284   10.6888 C.3     1  UNL1        0.1177
     17 C          62.4247   88.9906   11.0903 C.ar    1  UNL1       -0.0024
     18 C          62.6001   90.1515   10.1567 C.ar    1  UNL1       -0.0025
     19 C          63.4592   91.3137   10.5582 C.ar    1  UNL1        0.0043
     20 C          64.1428   91.3151   11.8933 C.ar    1  UNL1        0.0553
     21 C          63.9675   90.1543   12.8270 C.ar    1  UNL1        0.0043
     22 C          63.1084   88.9920   12.4255 C.ar    1  UNL1       -0.0025
     23 C          65.0019   92.4774   12.2948 C.2     1  UNL1        0.2677
     24 O          65.4873   92.5980   13.7090 O.2     1  UNL1       -0.2681
     25 N          65.3755   93.5190   11.2822 N.am    1  UNL1       -0.1934
     26 O          66.2346   94.6812   11.6837 O.3     1  UNL1       -0.2949
     27 H          65.0569   93.4398   10.3541 H       1  UNL1        0.1825
     28 H          66.4591   94.6076   12.6245 H       1  UNL1        0.2414
@<TRIPOS>BOND
     1    11    12   am
     2    12    13    2
     3    12     1    1
     4     1     2   ar
     5     2     3   ar
     6     3     4   ar
     7     4     5   ar
     8     5     6   ar
     9     5     7    1
    10     7     8    1
    11     8     9    1
    12     9    10    1
    13    10    16    1
    14    16    17    1
    15    17    18   ar
    16    18    19   ar
    17    19    20   ar
    18    20    23    1
    19    23    24    2
    20    23    25   am
    21    25    26    1
    22    20    21   ar
    23    21    22   ar
    24     6     1   ar
    25    22    17   ar
    26    10     4    1
    27    11    14    1
    28    11    15    1
    29    25    27    1
    30    26    28    1
@<TRIPOS>MOLECULE
*****
 28 30 0 0 0
SMALL
GASTEIGER

@<TRIPOS>ATOM
      1 C          62.9189   84.4392   11.1308 C.ar    1  UNL1        0.0529
      2 C          63.1727   85.4852   12.1756 C.ar    1  UNL1        0.0057
      3 C          62.5768   86.8537   12.0270 C.ar    1  UNL1        0.0144
      4 C          61.7271   87.1763   10.8337 C.ar    1  UNL1        0.0440
      5 C          61.4733   86.1303    9.7890 C.ar    1  UNL1       -0.0087
      6 C          62.0692   84.7618    9.9376 C.ar    1  UNL1        0.0015
      7 C          60.6236   86.4529    8.5956 C.3     1  UNL1        0.0294
      8 C          60.0278   87.8214    8.4471 C.3     1  UNL1        0.0261
      9 C          60.2816   88.8674    9.4919 C.3     1  UNL1        0.0914
     10 N          61.1313   88.5448   10.6852 N.pl3   1  UNL1       -0.3038
     11 N          62.8342   82.0455   12.1371 N.am    1  UNL1       -0.3253
     12 C          63.5147   83.0707   11.2794 C.2     1  UNL1        0.2427
     13 O          64.7911   82.7274   10.5702 O.2     1  UNL1       -0.2704
     14 H          63.2253   81.1473   12.2346 H       1  UNL1        0.1453
     15 H          61.9965   82.2708   12.6026 H       1  UNL1        0.1453
     16 C          61.3851   89.5908   11.7299 C.3     1  UNL1        0.1177
     17 C          62.6058   90.4580   11.6420 C.ar    1  UNL1       -0.0024
     18 C          62.9768   91.1008   10.3385 C.ar    1  UNL1       -0.0025
     19 C          64.1975   91.9680   10.2506 C.ar    1  UNL1        0.0043
     20 C          65.0473   92.1924   11.4661 C.ar    1  UNL1        0.0553
     21 C          64.6763   91.5496   12.7697 C.ar    1  UNL1        0.0043
     22 C          63.4556   90.6823   12.8576 C.ar    1  UNL1       -0.0025
     23 C          66.2680   93.0596   11.3782 C.2     1  UNL1        0.2677
     24 O          66.8711   93.6345   12.6256 O.2     1  UNL1       -0.2681
     25 N          66.8857   93.3520   10.0429 N.am    1  UNL1       -0.1934
     26 O          68.1064   94.2192    9.9550 O.3     1  UNL1       -0.2949
     27 H          66.4899   92.9747    9.2242 H       1  UNL1        0.1825
     28 H          68.3644   94.5056   10.8451 H       1  UNL1        0.2414
@<TRIPOS>BOND
     1    11    12   am
     2    12    13    2
     3    12     1    1
     4     1     2   ar
     5     2     3   ar
     6     3     4   ar
     7     4     5   ar
     8     5     6   ar
     9     5     7    1
    10     7     8    1
    11     8     9    1
    12     9    10    1
    13    10    16    1
    14    16    17    1
    15    17    18   ar
    16    18    19   ar
    17    19    20   ar
    18    20    23    1
    19    23    24    2
    20    23    25   am
    21    25    26    1
    22    20    21   ar
    23    21    22   ar
    24     6     1   ar
    25    22    17   ar
    26    10     4    1
    27    11    14    1
    28    11    15    1
    29    25    27    1
    30    26    28    1
@<TRIPOS>MOLECULE
*****
 28 30 0 0 0
SMALL
GASTEIGER

@<TRIPOS>ATOM
      1 C          62.9571   84.5449   11.0784 C.ar    1  UNL1        0.0529
      2 C          63.1396   85.4712   12.2439 C.ar    1  UNL1        0.0057
      3 C          62.5824   86.8629   12.1903 C.ar    1  UNL1        0.0144
      4 C          61.8426   87.3281   10.9712 C.ar    1  UNL1        0.0440
      5 C          61.6601   86.4018    9.8057 C.ar    1  UNL1       -0.0087
      6 C          62.2173   85.0101    9.8593 C.ar    1  UNL1        0.0015
      7 C          60.9203   86.8670    8.5865 C.3     1  UNL1        0.0294
      8 C          60.3631   88.2586    8.5330 C.3     1  UNL1        0.0261
      9 C          60.5456   89.1850    9.6986 C.3     1  UNL1        0.0914
     10 N          61.2854   88.7197   10.9177 N.pl3   1  UNL1       -0.3038
     11 N          62.8430   82.1084   11.9731 N.am    1  UNL1       -0.3253
     12 C          63.5143   83.1533   11.1319 C.2     1  UNL1        0.2427
     13 O          64.7429   82.8065   10.3444 O.2     1  UNL1       -0.2704
     14 H          63.2087   81.1950   12.0082 H       1  UNL1        0.1453
     15 H          62.0366   82.3360   12.4900 H       1  UNL1        0.1453
     16 C          61.4679   89.6461   12.0832 C.3     1  UNL1        0.1177
     17 C          62.7908   90.3163   12.3086 C.ar    1  UNL1       -0.0024
     18 C          63.4040   91.1497   11.2227 C.ar    1  UNL1       -0.0025
     19 C          64.7269   91.8199   11.4481 C.ar    1  UNL1        0.0043
     20 C          65.4365   91.6567   12.7594 C.ar    1  UNL1        0.0553
     21 C          64.8233   90.8232   13.8454 C.ar    1  UNL1        0.0043
     22 C          63.5005   90.1530   13.6200 C.ar    1  UNL1       -0.0025
     23 C          66.7594   92.3269   12.9848 C.2     1  UNL1        0.2677
     24 O          67.0054   93.7029   12.4406 O.2     1  UNL1       -0.2681
     25 N          67.8363   91.6211   13.7543 N.am    1  UNL1       -0.1934
     26 O          69.1592   92.2913   13.9797 O.3     1  UNL1       -0.2949
     27 H          67.6748   90.7180   14.1115 H       1  UNL1        0.1825
     28 H          69.1519   93.1686   13.5659 H       1  UNL1        0.2414
@<TRIPOS>BOND
     1    11    12   am
     2    12    13    2
     3    12     1    1
     4     1     2   ar
     5     2     3   ar
     6     3     4   ar
     7     4     5   ar
     8     5     6   ar
     9     5     7    1
    10     7     8    1
    11     8     9    1
    12     9    10    1
    13    10    16    1
    14    16    17    1
    15    17    18   ar
    16    18    19   ar
    17    19    20   ar
    18    20    23    1
    19    23    24    2
    20    23    25   am
    21    25    26    1
    22    20    21   ar
    23    21    22   ar
    24     6     1   ar
    25    22    17   ar
    26    10     4    1
    27    11    14    1
    28    11    15    1
    29    25    27    1
    30    26    28    1
@<TRIPOS>MOLECULE
*****
 28 30 0 0 0
SMALL
GASTEIGER

@<TRIPOS>ATOM
      1 C          60.6067   86.8603    8.8534 C.ar    1  UNL1        0.0529
      2 C          60.6717   88.3555    8.9533 C.ar    1  UNL1        0.0057
      3 C          61.4452   89.0000   10.0652 C.ar    1  UNL1        0.0144
      4 C          62.1536   88.1492   11.0773 C.ar    1  UNL1        0.0440
      5 C          62.0886   86.6540   10.9774 C.ar    1  UNL1       -0.0087
      6 C          61.3151   86.0095    9.8655 C.ar    1  UNL1        0.0015
      7 C          62.7970   85.8032   11.9895 C.3     1  UNL1        0.0294
      8 C          63.5705   86.4476   13.1014 C.3     1  UNL1        0.0261
      9 C          63.6356   87.9430   13.2013 C.3     1  UNL1        0.0914
     10 N          62.9271   88.7937   12.1892 N.pl3   1  UNL1       -0.3038
     11 N          58.4187   86.6350    7.4708 N.am    1  UNL1       -0.3253
     12 C          59.8332   86.2158    7.7415 C.2     1  UNL1        0.2427
     13 O          60.4742   85.1521    6.9004 O.2     1  UNL1       -0.2704
     14 H          57.9110   86.2120    6.7410 H       1  UNL1        0.1453
     15 H          57.9979   87.3332    8.0228 H       1  UNL1        0.1453
     16 C          62.9922   90.2889   12.2891 C.3     1  UNL1        0.1177
     17 C          64.1986   90.9488   12.8883 C.ar    1  UNL1       -0.0024
     18 C          64.5733   90.6737   14.3144 C.ar    1  UNL1       -0.0025
     19 C          65.7797   91.3336   14.9136 C.ar    1  UNL1        0.0043
     20 C          66.6115   92.2686   14.0867 C.ar    1  UNL1        0.0553
     21 C          66.2369   92.5438   12.6605 C.ar    1  UNL1        0.0043
     22 C          65.0304   91.8839   12.0613 C.ar    1  UNL1       -0.0025
     23 C          67.8180   92.9285   14.6859 C.2     1  UNL1        0.2677
     24 O          69.1878   92.5929   14.1749 O.2     1  UNL1       -0.2681
     25 N          67.6546   93.9239   15.7960 N.am    1  UNL1       -0.1934
     26 O          68.8611   94.5838   16.3952 O.3     1  UNL1       -0.2949
     27 H          66.7556   94.1441   16.1313 H       1  UNL1        0.1825
     28 H          69.6608   94.2575   15.9537 H       1  UNL1        0.2414
@<TRIPOS>BOND
     1    11    12   am
     2    12    13    2
     3    12     1    1
     4     1     2   ar
     5     2     3   ar
     6     3     4   ar
     7     4     5   ar
     8     5     6   ar
     9     5     7    1
    10     7     8    1
    11     8     9    1
    12     9    10    1
    13    10    16    1
    14    16    17    1
    15    17    18   ar
    16    18    19   ar
    17    19    20   ar
    18    20    23    1
    19    23    24    2
    20    23    25   am
    21    25    26    1
    22    20    21   ar
    23    21    22   ar
    24     6     1   ar
    25    22    17   ar
    26    10     4    1
    27    11    14    1
    28    11    15    1
    29    25    27    1
    30    26    28    1
@<TRIPOS>MOLECULE
*****
 28 30 0 0 0
SMALL
GASTEIGER

@<TRIPOS>ATOM
      1 C          61.9590   86.9498   10.0505 C.ar    1  UNL1        0.0529
      2 C          61.9398   88.4494   10.0792 C.ar    1  UNL1        0.0057
      3 C          62.5234   89.1846   11.2492 C.ar    1  UNL1        0.0144
      4 C          63.1262   88.4204   12.3904 C.ar    1  UNL1        0.0440
      5 C          63.1454   86.9208   12.3616 C.ar    1  UNL1       -0.0087
      6 C          62.5618   86.1855   11.1917 C.ar    1  UNL1        0.0015
      7 C          63.7483   86.1564   13.5029 C.3     1  UNL1        0.0294
      8 C          64.3319   86.8917   14.6728 C.3     1  UNL1        0.0261
      9 C          64.3126   88.3913   14.7016 C.3     1  UNL1        0.0914
     10 N          63.7098   89.1556   13.5603 N.pl3   1  UNL1       -0.3038
     11 N          62.2641   85.4013    7.9867 N.am    1  UNL1       -0.3253
     12 C          61.3754   86.2145    8.8805 C.2     1  UNL1        0.2427
     13 O          59.9032   86.2925    8.6043 O.2     1  UNL1       -0.2704
     14 H          61.8811   84.9187    7.2188 H       1  UNL1        0.1453
     15 H          63.2304   85.3502    8.1680 H       1  UNL1        0.1453
     16 C          63.6905   90.6552   13.5891 C.3     1  UNL1        0.1177
     17 C          64.6312   91.4342   12.7183 C.ar    1  UNL1       -0.0024
     18 C          65.9612   91.8729   13.2555 C.ar    1  UNL1       -0.0025
     19 C          66.9019   92.6518   12.3847 C.ar    1  UNL1        0.0043
     20 C          66.5126   92.9921   10.9767 C.ar    1  UNL1        0.0553
     21 C          65.1825   92.5535   10.4394 C.ar    1  UNL1        0.0043
     22 C          64.2418   91.7745   11.3102 C.ar    1  UNL1       -0.0025
     23 C          67.4532   93.7711   10.1059 C.2     1  UNL1        0.2677
     24 O          68.8083   93.2157    9.7809 O.2     1  UNL1       -0.2681
     25 N          67.0390   95.1054    9.5600 N.am    1  UNL1       -0.1934
     26 O          67.9796   95.8844    8.6892 O.3     1  UNL1       -0.2949
     27 H          66.1497   95.4699    9.7733 H       1  UNL1        0.1825
     28 H          68.8052   95.3871    8.5792 H       1  UNL1        0.2414
@<TRIPOS>BOND
     1    11    12   am
     2    12    13    2
     3    12     1    1
     4     1     2   ar
     5     2     3   ar
     6     3     4   ar
     7     4     5   ar
     8     5     6   ar
     9     5     7    1
    10     7     8    1
    11     8     9    1
    12     9    10    1
    13    10    16    1
    14    16    17    1
    15    17    18   ar
    16    18    19   ar
    17    19    20   ar
    18    20    23    1
    19    23    24    2
    20    23    25   am
    21    25    26    1
    22    20    21   ar
    23    21    22   ar
    24     6     1   ar
    25    22    17   ar
    26    10     4    1
    27    11    14    1
    28    11    15    1
    29    25    27    1
    30    26    28    1
@<TRIPOS>MOLECULE
*****
 28 30 0 0 0
SMALL
GASTEIGER

@<TRIPOS>ATOM
      1 C          67.0929   92.5248   14.8738 C.ar    1  UNL1        0.0529
      2 C          66.0278   91.5625   15.3093 C.ar    1  UNL1        0.0057
      3 C          64.9519   91.1497   14.3491 C.ar    1  UNL1        0.0144
      4 C          64.9410   91.6992   12.9534 C.ar    1  UNL1        0.0440
      5 C          66.0060   92.6615   12.5180 C.ar    1  UNL1       -0.0087
      6 C          67.0820   93.0742   13.4781 C.ar    1  UNL1        0.0015
      7 C          65.9952   93.2110   11.1222 C.3     1  UNL1        0.0294
      8 C          64.9192   92.7982   10.1621 C.3     1  UNL1        0.0261
      9 C          63.8541   91.8359   10.5976 C.3     1  UNL1        0.0914
     10 N          63.8650   91.2864   11.9933 N.pl3   1  UNL1       -0.3038
     11 N          69.0254   91.8974   16.4929 N.am    1  UNL1       -0.3253
     12 C          68.1688   92.9376   15.8340 C.2     1  UNL1        0.2427
     13 O          68.3882   94.3905   16.1352 O.2     1  UNL1       -0.2704
     14 H          69.7316   92.1684   17.1231 H       1  UNL1        0.1453
     15 H          68.8815   90.9438   16.2952 H       1  UNL1        0.1453
     16 C          62.8000   90.3242   12.4288 C.3     1  UNL1        0.1177
     17 C          62.1378   89.4319   11.4211 C.ar    1  UNL1       -0.0024
     18 C          62.5948   88.0122   11.2614 C.ar    1  UNL1       -0.0025
     19 C          61.9327   87.1200   10.2537 C.ar    1  UNL1        0.0043
     20 C          60.8135   87.6474    9.4057 C.ar    1  UNL1        0.0553
     21 C          60.3564   89.0672    9.5654 C.ar    1  UNL1        0.0043
     22 C          61.0185   89.9594   10.5731 C.ar    1  UNL1       -0.0025
     23 C          60.1513   86.7551    8.3981 C.2     1  UNL1        0.2677
     24 O          58.6751   86.8643    8.1551 O.2     1  UNL1       -0.2681
     25 N          60.9652   85.7538    7.6334 N.am    1  UNL1       -0.1934
     26 O          60.3030   84.8615    6.6258 O.3     1  UNL1       -0.2949
     27 H          61.9341   85.6821    7.7929 H       1  UNL1        0.1825
     28 H          59.3542   85.0601    6.5922 H       1  UNL1        0.2414
@<TRIPOS>BOND
     1    11    12   am
     2    12    13    2
     3    12     1    1
     4     1     2   ar
     5     2     3   ar
     6     3     4   ar
     7     4     5   ar
     8     5     6   ar
     9     5     7    1
    10     7     8    1
    11     8     9    1
    12     9    10    1
    13    10    16    1
    14    16    17    1
    15    17    18   ar
    16    18    19   ar
    17    19    20   ar
    18    20    23    1
    19    23    24    2
    20    23    25   am
    21    25    26    1
    22    20    21   ar
    23    21    22   ar
    24     6     1   ar
    25    22    17   ar
    26    10     4    1
    27    11    14    1
    28    11    15    1
    29    25    27    1
    30    26    28    1
@<TRIPOS>MOLECULE
*****
 28 30 0 0 0
SMALL
GASTEIGER

@<TRIPOS>ATOM
      1 C          65.8798   91.5420   14.4579 C.ar    1  UNL1        0.0529
      2 C          64.9699   90.4240   14.8726 C.ar    1  UNL1        0.0057
      3 C          63.9367   89.9043   13.9174 C.ar    1  UNL1        0.0144
      4 C          63.8134   90.5027   12.5475 C.ar    1  UNL1        0.0440
      5 C          64.7233   91.6208   12.1328 C.ar    1  UNL1       -0.0087
      6 C          65.7565   92.1404   13.0880 C.ar    1  UNL1        0.0015
      7 C          64.6000   92.2192   10.7628 C.3     1  UNL1        0.0294
      8 C          63.5668   91.6996    9.8076 C.3     1  UNL1        0.0261
      9 C          62.6569   90.5815   10.2224 C.3     1  UNL1        0.0914
     10 N          62.7802   89.9831   11.5922 N.pl3   1  UNL1       -0.3038
     11 N          68.3668   91.7837   15.1697 N.am    1  UNL1       -0.3253
     12 C          66.9130   92.0617   15.4131 C.2     1  UNL1        0.2427
     13 O          66.4925   92.8593   16.6118 O.2     1  UNL1       -0.2704
     14 H          69.0449   92.1247   15.7966 H       1  UNL1        0.1453
     15 H          68.6428   91.2602   14.3829 H       1  UNL1        0.1453
     16 C          61.8703   88.8650   12.0069 C.3     1  UNL1        0.1177
     17 C          62.2769   87.4405   11.7713 C.ar    1  UNL1       -0.0024
     18 C          62.9979   86.6792   12.8439 C.ar    1  UNL1       -0.0025
     19 C          63.4045   85.2547   12.6083 C.ar    1  UNL1        0.0043
     20 C          63.0901   84.5915   11.3002 C.ar    1  UNL1        0.0553
     21 C          62.3691   85.3529   10.2275 C.ar    1  UNL1        0.0043
     22 C          61.9625   86.7774   10.4631 C.ar    1  UNL1       -0.0025
     23 C          63.4967   83.1670   11.0646 C.2     1  UNL1        0.2677
     24 O          64.7265   82.8610   10.2621 O.2     1  UNL1       -0.2681
     25 N          62.6735   82.0486   11.6315 N.am    1  UNL1       -0.1934
     26 O          63.0801   80.6241   11.3959 O.3     1  UNL1       -0.2949
     27 H          61.8664   82.2494   12.1582 H       1  UNL1        0.1825
     28 H          63.8904   80.6030   10.8631 H       1  UNL1        0.2414
@<TRIPOS>BOND
     1    11    12   am
     2    12    13    2
     3    12     1    1
     4     1     2   ar
     5     2     3   ar
     6     3     4   ar
     7     4     5   ar
     8     5     6   ar
     9     5     7    1
    10     7     8    1
    11     8     9    1
    12     9    10    1
    13    10    16    1
    14    16    17    1
    15    17    18   ar
    16    18    19   ar
    17    19    20   ar
    18    20    23    1
    19    23    24    2
    20    23    25   am
    21    25    26    1
    22    20    21   ar
    23    21    22   ar
    24     6     1   ar
    25    22    17   ar
    26    10     4    1
    27    11    14    1
    28    11    15    1
    29    25    27    1
    30    26    28    1
@<TRIPOS>MOLECULE
*****
 28 30 0 0 0
SMALL
GASTEIGER

@<TRIPOS>ATOM
      1 C          63.0581   83.5822   12.0571 C.ar    1  UNL1        0.0529
      2 C          62.4390   84.6189   11.1671 C.ar    1  UNL1        0.0057
      3 C          62.5524   86.0729   11.5178 C.ar    1  UNL1        0.0144
      4 C          63.2849   86.4903   12.7584 C.ar    1  UNL1        0.0440
      5 C          63.9039   85.4536   13.6484 C.ar    1  UNL1       -0.0087
      6 C          63.7905   83.9996   13.2978 C.ar    1  UNL1        0.0015
      7 C          64.6364   85.8710   14.8892 C.3     1  UNL1        0.0294
      8 C          64.7498   87.3250   15.2398 C.3     1  UNL1        0.0261
      9 C          64.1307   88.3617   14.3498 C.3     1  UNL1        0.0914
     10 N          63.3983   87.9443   13.1091 N.pl3   1  UNL1       -0.3038
     11 N          62.3506   81.1637   12.6897 N.am    1  UNL1       -0.3253
     12 C          62.9446   82.1282   11.7065 C.2     1  UNL1        0.2427
     13 O          63.4253   81.6387   10.3726 O.2     1  UNL1       -0.2704
     14 H          62.2761   80.2094   12.4595 H       1  UNL1        0.1453
     15 H          62.0351   81.4850   13.5652 H       1  UNL1        0.1453
     16 C          62.7793   88.9809   12.2191 C.3     1  UNL1        0.1177
     17 C          63.5354   90.2333   11.8879 C.ar    1  UNL1       -0.0024
     18 C          63.4310   90.8319   10.5165 C.ar    1  UNL1       -0.0025
     19 C          64.1872   92.0843   10.1852 C.ar    1  UNL1        0.0043
     20 C          65.0478   92.7381   11.2254 C.ar    1  UNL1        0.0553
     21 C          65.1522   92.1395   12.5968 C.ar    1  UNL1        0.0043
     22 C          64.3960   90.8871   12.9281 C.ar    1  UNL1       -0.0025
     23 C          65.8039   93.9905   10.8941 C.2     1  UNL1        0.2677
     24 O          67.2986   94.0189   11.0174 O.2     1  UNL1       -0.2681
     25 N          65.0655   95.2144   10.4396 N.am    1  UNL1       -0.1934
     26 O          65.8216   96.4668   10.1084 O.3     1  UNL1       -0.2949
     27 H          64.0845   95.1958   10.3587 H       1  UNL1        0.1825
     28 H          66.7707   96.3160   10.2403 H       1  UNL1        0.2414
@<TRIPOS>BOND
     1    11    12   am
     2    12    13    2
     3    12     1    1
     4     1     2   ar
     5     2     3   ar
     6     3     4   ar
     7     4     5   ar
     8     5     6   ar
     9     5     7    1
    10     7     8    1
    11     8     9    1
    12     9    10    1
    13    10    16    1
    14    16    17    1
    15    17    18   ar
    16    18    19   ar
    17    19    20   ar
    18    20    23    1
    19    23    24    2
    20    23    25   am
    21    25    26    1
    22    20    21   ar
    23    21    22   ar
    24     6     1   ar
    25    22    17   ar
    26    10     4    1
    27    11    14    1
    28    11    15    1
    29    25    27    1
    30    26    28    1
@<TRIPOS>MOLECULE
*****
 28 30 0 0 0
SMALL
GASTEIGER

@<TRIPOS>ATOM
      1 C          67.4600   92.5692   14.3612 C.ar    1  UNL1        0.0529
      2 C          66.6025   91.6270   15.1531 C.ar    1  UNL1        0.0057
      3 C          65.3796   91.0221   14.5298 C.ar    1  UNL1        0.0144
      4 C          65.0141   91.3594   13.1146 C.ar    1  UNL1        0.0440
      5 C          65.8716   92.3015   12.3228 C.ar    1  UNL1       -0.0087
      6 C          67.0946   92.9064   12.9461 C.ar    1  UNL1        0.0015
      7 C          65.5062   92.6387   10.9076 C.3     1  UNL1        0.0294
      8 C          64.2832   92.0339   10.2843 C.3     1  UNL1        0.0261
      9 C          63.4257   91.0917   11.0762 C.3     1  UNL1        0.0914
     10 N          63.7912   90.7545   12.4913 N.pl3   1  UNL1       -0.3038
     11 N          68.5472   94.1029   16.1545 N.am    1  UNL1       -0.3253
     12 C          68.6830   93.1741   14.9845 C.2     1  UNL1        0.2427
     13 O          70.0417   92.8501   14.4379 O.2     1  UNL1       -0.2704
     14 H          69.3498   94.4999   16.5635 H       1  UNL1        0.1453
     15 H          67.6554   94.3155   16.5132 H       1  UNL1        0.1453
     16 C          62.9337   89.8123   13.2832 C.3     1  UNL1        0.1177
     17 C          63.1876   88.3353   13.2215 C.ar    1  UNL1       -0.0024
     18 C          62.6480   87.5286   12.0778 C.ar    1  UNL1       -0.0025
     19 C          62.9019   86.0516   12.0161 C.ar    1  UNL1        0.0043
     20 C          63.6954   85.3811   13.0981 C.ar    1  UNL1        0.0553
     21 C          64.2351   86.1878   14.2419 C.ar    1  UNL1        0.0043
     22 C          63.9812   87.6648   14.3036 C.ar    1  UNL1       -0.0025
     23 C          63.9493   83.9041   13.0364 C.2     1  UNL1        0.2677
     24 O          64.5379   83.2953   11.7982 O.2     1  UNL1       -0.2681
     25 N          63.6146   83.0358   14.2128 N.am    1  UNL1       -0.1934
     26 O          63.8685   81.5587   14.1511 O.3     1  UNL1       -0.2949
     27 H          63.2283   83.4353   15.0254 H       1  UNL1        0.1825
     28 H          64.2482   81.3317   13.2879 H       1  UNL1        0.2414
@<TRIPOS>BOND
     1    11    12   am
     2    12    13    2
     3    12     1    1
     4     1     2   ar
     5     2     3   ar
     6     3     4   ar
     7     4     5   ar
     8     5     6   ar
     9     5     7    1
    10     7     8    1
    11     8     9    1
    12     9    10    1
    13    10    16    1
    14    16    17    1
    15    17    18   ar
    16    18    19   ar
    17    19    20   ar
    18    20    23    1
    19    23    24    2
    20    23    25   am
    21    25    26    1
    22    20    21   ar
    23    21    22   ar
    24     6     1   ar
    25    22    17   ar
    26    10     4    1
    27    11    14    1
    28    11    15    1
    29    25    27    1
    30    26    28    1
