@<TRIPOS>MOLECULE
*****
 31 34 0 0 0
SMALL
GASTEIGER

@<TRIPOS>ATOM
      1 N          63.1647   90.2001   12.1892 N.am    1  UNL1       -0.2465
      2 C          62.2357   90.8472   11.2052 C.3     1  UNL1        0.1443
      3 C          61.5964   89.7630   10.3893 C.ar    1  UNL1        0.0833
      4 N          60.5971   89.8050    9.2715 N.ar    1  UNL1       -0.2524
      5 C          60.1316   88.5297    8.6333 C.ar    1  UNL1        0.0563
      6 C          59.1322   88.5717    7.5154 C.3     1  UNL1        0.0518
      7 C          60.6655   87.2126    9.1129 C.ar    1  UNL1        0.0072
      8 C          61.6648   87.1706   10.2308 C.ar    1  UNL1        0.0049
      9 C          62.1303   88.4458   10.8689 C.ar    1  UNL1        0.0689
     10 C          63.0996   88.7160   11.9814 C.2     1  UNL1        0.2543
     11 O          63.8687   87.6833   12.7509 O.2     1  UNL1       -0.2695
     12 C          62.1987   85.8535   10.7104 C.ar    1  UNL1        0.0106
     13 C          61.8616   85.3643   12.0878 C.ar    1  UNL1        0.0017
     14 C          62.3954   84.0472   12.5675 C.ar    1  UNL1        0.0114
     15 C          63.2665   83.2191   11.6698 C.ar    1  UNL1        0.0585
     16 CL         63.8003   81.9021   12.1495 Cl      1  UNL1       -0.0822
     17 C          63.6036   83.7084   10.2925 C.ar    1  UNL1        0.0228
     18 C          63.0698   85.0255    9.8128 C.ar    1  UNL1        0.0585
     19 CL         63.4069   85.5147    8.4354 Cl      1  UNL1       -0.0822
     20 C          63.7766   90.6851   14.6672 C.ar    1  UNL1        0.1523
     21 C          64.6223   91.3971   15.6810 C.ar    1  UNL1        0.0382
     22 C          65.7019   92.3361   15.2306 C.ar    1  UNL1        0.0032
     23 C          65.9358   92.5631   13.7665 C.ar    1  UNL1        0.0015
     24 C          65.0900   91.8510   12.7527 C.ar    1  UNL1        0.0180
     25 C          64.0104   90.9121   13.2030 C.ar    1  UNL1        0.0886
     26 C          62.8296   89.0226   16.4248 C.3     1  UNL1        0.2525
     27 O          62.6970   89.7461   15.1176 O.3     1  UNL1       -0.4702
     28 C          60.2001   85.9374    8.4748 C.3     1  UNL1        0.0934
     29 N          60.5254   85.6556    7.0379 N.3     1  UNL1       -0.3174
     30 H          60.0451   86.3299    6.4420 H       1  UNL1        0.1192
     31 H          60.2198   84.7123    6.7987 H       1  UNL1        0.1192
@<TRIPOS>BOND
     1    26    27    1
     2    27    20    1
     3    20    21   ar
     4    21    22   ar
     5    22    23   ar
     6    23    24   ar
     7    24    25   ar
     8    25     1    1
     9     1     2    1
    10     2     3    1
    11     3     4   ar
    12     4     5   ar
    13     5     6    1
    14     5     7   ar
    15     7    28    1
    16    28    29    1
    17     7     8   ar
    18     8    12    1
    19    12    13   ar
    20    13    14   ar
    21    14    15   ar
    22    15    16    1
    23    15    17   ar
    24    17    18   ar
    25    18    19    1
    26     8     9   ar
    27     9    10    1
    28    10    11    2
    29    25    20   ar
    30    10     1   am
    31     9     3   ar
    32    18    12   ar
    33    29    30    1
    34    29    31    1
@<TRIPOS>MOLECULE
*****
 31 34 0 0 0
SMALL
GASTEIGER

@<TRIPOS>ATOM
      1 N          63.0490   90.1191   12.1475 N.am    1  UNL1       -0.2465
      2 C          62.1151   90.7716   11.1718 C.3     1  UNL1        0.1443
      3 C          61.5025   89.6950   10.3257 C.ar    1  UNL1        0.0833
      4 N          60.5108   89.7445    9.2015 N.ar    1  UNL1       -0.2524
      5 C          60.0743   88.4760    8.5301 C.ar    1  UNL1        0.0563
      6 C          59.0825   88.5255    7.4058 C.3     1  UNL1        0.0518
      7 C          60.6296   87.1583    8.9830 C.ar    1  UNL1        0.0072
      8 C          61.6213   87.1089   10.1072 C.ar    1  UNL1        0.0049
      9 C          62.0578   88.3773   10.7786 C.ar    1  UNL1        0.0689
     10 C          63.0136   88.6394   11.9046 C.2     1  UNL1        0.2543
     11 O          63.7965   87.6036   12.6557 O.2     1  UNL1       -0.2695
     12 C          62.1766   85.7911   10.5601 C.ar    1  UNL1        0.0106
     13 C          61.8196   85.2521   11.9137 C.ar    1  UNL1        0.0017
     14 C          62.3748   83.9344   12.3666 C.ar    1  UNL1        0.0114
     15 C          63.2872   83.1555   11.4660 C.ar    1  UNL1        0.0585
     16 CL         63.8424   81.8378   11.9188 Cl      1  UNL1       -0.0822
     17 C          63.6442   83.6945   10.1125 C.ar    1  UNL1        0.0228
     18 C          63.0889   85.0123    9.6595 C.ar    1  UNL1        0.0585
     19 CL         63.4460   85.5513    8.3060 Cl      1  UNL1       -0.0822
     20 C          64.9386   91.7921   12.7644 C.ar    1  UNL1        0.1523
     21 C          65.7632   92.4959   13.8012 C.ar    1  UNL1        0.0382
     22 C          65.5227   92.2303   15.2578 C.ar    1  UNL1        0.0032
     23 C          64.4577   91.2611   15.6777 C.ar    1  UNL1        0.0015
     24 C          63.6332   90.5574   14.6408 C.ar    1  UNL1        0.0180
     25 C          63.8736   90.8229   13.1842 C.ar    1  UNL1        0.0886
     26 C          65.6558   93.4077   10.8603 C.3     1  UNL1        0.2525
     27 O          65.1791   92.0577   11.3078 O.3     1  UNL1       -0.4702
     28 C          60.1932   85.8899    8.3116 C.3     1  UNL1        0.0934
     29 N          60.6350   85.5933    6.9091 N.3     1  UNL1       -0.3174
     30 H          60.2227   86.2745    6.2716 H       1  UNL1        0.1192
     31 H          60.3305   84.6555    6.6479 H       1  UNL1        0.1192
@<TRIPOS>BOND
     1    26    27    1
     2    27    20    1
     3    20    21   ar
     4    21    22   ar
     5    22    23   ar
     6    23    24   ar
     7    24    25   ar
     8    25     1    1
     9     1     2    1
    10     2     3    1
    11     3     4   ar
    12     4     5   ar
    13     5     6    1
    14     5     7   ar
    15     7    28    1
    16    28    29    1
    17     7     8   ar
    18     8    12    1
    19    12    13   ar
    20    13    14   ar
    21    14    15   ar
    22    15    16    1
    23    15    17   ar
    24    17    18   ar
    25    18    19    1
    26     8     9   ar
    27     9    10    1
    28    10    11    2
    29    25    20   ar
    30    10     1   am
    31     9     3   ar
    32    18    12   ar
    33    29    30    1
    34    29    31    1
@<TRIPOS>MOLECULE
*****
 31 34 0 0 0
SMALL
GASTEIGER

@<TRIPOS>ATOM
      1 N          62.8034   90.0176   11.7987 N.am    1  UNL1       -0.2465
      2 C          62.9147   89.8593   13.2861 C.3     1  UNL1        0.1443
      3 C          63.9593   90.8173   13.7773 C.ar    1  UNL1        0.0833
      4 N          64.4929   91.1032   15.1496 N.ar    1  UNL1       -0.2524
      5 C          65.5609   92.1396   15.3381 C.ar    1  UNL1        0.0563
      6 C          66.0946   92.4256   16.7105 C.3     1  UNL1        0.0518
      7 C          66.0951   92.8899   14.1543 C.ar    1  UNL1        0.0072
      8 C          65.5615   92.6039   12.7819 C.ar    1  UNL1        0.0049
      9 C          64.4935   91.5676   12.5934 C.ar    1  UNL1        0.0689
     10 C          63.7792   91.0734   11.3705 C.2     1  UNL1        0.2543
     11 O          64.0015   91.5510    9.9661 O.2     1  UNL1       -0.2695
     12 C          66.0957   93.3543   11.5980 C.ar    1  UNL1        0.0106
     13 C          65.4436   94.6336   11.1643 C.ar    1  UNL1        0.0017
     14 C          65.9778   95.3840    9.9805 C.ar    1  UNL1        0.0114
     15 C          67.1642   94.8551    9.2303 C.ar    1  UNL1        0.0585
     16 CL         67.6984   95.6054    8.0465 Cl      1  UNL1       -0.0822
     17 C          67.8163   93.5758    9.6640 C.ar    1  UNL1        0.0228
     18 C          67.2821   92.8253   10.8479 C.ar    1  UNL1        0.0585
     19 CL         67.9342   91.5461   11.2817 Cl      1  UNL1       -0.0822
     20 C          61.8331   87.7564   10.9648 C.ar    1  UNL1        0.1523
     21 C          60.9084   86.9930   10.0635 C.ar    1  UNL1        0.0382
     22 C          60.0293   87.7274    9.0951 C.ar    1  UNL1        0.0032
     23 C          60.0749   89.2251    9.0278 C.ar    1  UNL1        0.0015
     24 C          60.9997   89.9885    9.9290 C.ar    1  UNL1        0.0180
     25 C          61.8787   89.2542   10.8975 C.ar    1  UNL1        0.0886
     26 C          62.6803   85.5233   11.9873 C.3     1  UNL1        0.2525
     27 O          62.7122   87.0220   11.9332 O.3     1  UNL1       -0.4702
     28 C          67.1631   93.9263   14.3427 C.3     1  UNL1        0.0934
     29 N          68.5129   93.5266   14.8605 N.3     1  UNL1       -0.3174
     30 H          68.4243   93.1961   15.8214 H       1  UNL1        0.1192
     31 H          69.1392   94.3313   14.8341 H       1  UNL1        0.1192
@<TRIPOS>BOND
     1    26    27    1
     2    27    20    1
     3    20    21   ar
     4    21    22   ar
     5    22    23   ar
     6    23    24   ar
     7    24    25   ar
     8    25     1    1
     9     1     2    1
    10     2     3    1
    11     3     4   ar
    12     4     5   ar
    13     5     6    1
    14     5     7   ar
    15     7    28    1
    16    28    29    1
    17     7     8   ar
    18     8    12    1
    19    12    13   ar
    20    13    14   ar
    21    14    15   ar
    22    15    16    1
    23    15    17   ar
    24    17    18   ar
    25    18    19    1
    26     8     9   ar
    27     9    10    1
    28    10    11    2
    29    25    20   ar
    30    10     1   am
    31     9     3   ar
    32    18    12   ar
    33    29    30    1
    34    29    31    1
@<TRIPOS>MOLECULE
*****
 31 34 0 0 0
SMALL
GASTEIGER

@<TRIPOS>ATOM
      1 N          63.1116   84.5360   13.3576 N.am    1  UNL1       -0.2465
      2 C          63.9781   85.2788   14.3310 C.3     1  UNL1        0.1443
      3 C          63.9385   86.7341   13.9699 C.ar    1  UNL1        0.0833
      4 N          64.5987   87.9369   14.5761 N.ar    1  UNL1       -0.2524
      5 C          64.3679   89.2964   13.9857 C.ar    1  UNL1        0.0563
      6 C          65.0281   90.4993   14.5919 C.3     1  UNL1        0.0518
      7 C          63.4770   89.4531   12.7892 C.ar    1  UNL1        0.0072
      8 C          62.8169   88.2503   12.1830 C.ar    1  UNL1        0.0049
      9 C          63.0476   86.8908   12.7734 C.ar    1  UNL1        0.0689
     10 C          62.5365   85.5323   12.3949 C.2     1  UNL1        0.2543
     11 O          61.6126   85.2241   11.2541 O.2     1  UNL1       -0.2695
     12 C          61.9259   88.4070   10.9865 C.ar    1  UNL1        0.0106
     13 C          62.3470   87.8481    9.6596 C.ar    1  UNL1        0.0017
     14 C          61.4561   88.0048    8.4631 C.ar    1  UNL1        0.0114
     15 C          60.1442   88.7204    8.5933 C.ar    1  UNL1        0.0585
     16 CL         59.2533   88.8771    7.3968 Cl      1  UNL1       -0.0822
     17 C          59.7232   89.2792    9.9201 C.ar    1  UNL1        0.0228
     18 C          60.6141   89.1225   11.1167 C.ar    1  UNL1        0.0585
     19 CL         60.1931   89.6813   12.4436 Cl      1  UNL1       -0.0822
     20 C          63.6191   82.1755   12.3983 C.ar    1  UNL1        0.1523
     21 C          63.3711   80.6961   12.3892 C.ar    1  UNL1        0.0382
     22 C          62.3678   80.0979   13.3302 C.ar    1  UNL1        0.0032
     23 C          61.6124   80.9791   14.2804 C.ar    1  UNL1        0.0015
     24 C          61.8604   82.4585   14.2895 C.ar    1  UNL1        0.0180
     25 C          62.8637   83.0567   13.3485 C.ar    1  UNL1        0.0886
     26 C          64.2095   83.1623   10.0686 C.3     1  UNL1        0.2525
     27 O          64.6224   82.7735   11.4572 O.3     1  UNL1       -0.4702
     28 C          63.2462   90.8126   12.1988 C.3     1  UNL1        0.0934
     29 N          63.9766   91.2238   10.9549 N.3     1  UNL1       -0.3174
     30 H          64.9749   91.2911   11.1533 H       1  UNL1        0.1192
     31 H          63.6304   92.1306   10.6414 H       1  UNL1        0.1192
@<TRIPOS>BOND
     1    26    27    1
     2    27    20    1
     3    20    21   ar
     4    21    22   ar
     5    22    23   ar
     6    23    24   ar
     7    24    25   ar
     8    25     1    1
     9     1     2    1
    10     2     3    1
    11     3     4   ar
    12     4     5   ar
    13     5     6    1
    14     5     7   ar
    15     7    28    1
    16    28    29    1
    17     7     8   ar
    18     8    12    1
    19    12    13   ar
    20    13    14   ar
    21    14    15   ar
    22    15    16    1
    23    15    17   ar
    24    17    18   ar
    25    18    19    1
    26     8     9   ar
    27     9    10    1
    28    10    11    2
    29    25    20   ar
    30    10     1   am
    31     9     3   ar
    32    18    12   ar
    33    29    30    1
    34    29    31    1
@<TRIPOS>MOLECULE
*****
 31 34 0 0 0
SMALL
GASTEIGER

@<TRIPOS>ATOM
      1 N          62.1137   89.2652   10.2167 N.am    1  UNL1       -0.2465
      2 C          62.8583   90.5144    9.8494 C.3     1  UNL1        0.1443
      3 C          63.6900   90.9221   11.0292 C.ar    1  UNL1        0.0833
      4 N          64.6275   92.0726   11.2468 N.ar    1  UNL1       -0.2524
      5 C          65.3344   92.2258   12.5609 C.ar    1  UNL1        0.0563
      6 C          66.2720   93.3764   12.7785 C.3     1  UNL1        0.0518
      7 C          65.1038   91.2286   13.6573 C.ar    1  UNL1        0.0072
      8 C          64.1663   90.0781   13.4398 C.ar    1  UNL1        0.0049
      9 C          63.4594   89.9249   12.1257 C.ar    1  UNL1        0.0689
     10 C          62.4851   88.9008   11.6236 C.2     1  UNL1        0.2543
     11 O          61.9724   87.7198   12.3931 O.2     1  UNL1       -0.2695
     12 C          63.9357   89.0809   14.5363 C.ar    1  UNL1        0.0106
     13 C          64.3693   87.6560   14.3577 C.ar    1  UNL1        0.0017
     14 C          64.1388   86.6588   15.4541 C.ar    1  UNL1        0.0114
     15 C          63.4745   87.0863   16.7293 C.ar    1  UNL1        0.0585
     16 CL         63.2439   86.0891   17.8258 Cl      1  UNL1       -0.0822
     17 C          63.0408   88.5111   16.9079 C.ar    1  UNL1        0.0228
     18 C          63.2714   89.5084   15.8114 C.ar    1  UNL1        0.0585
     19 CL         62.8378   90.9332   15.9901 Cl      1  UNL1       -0.0822
     20 C          61.3468   87.0390    9.1184 C.ar    1  UNL1        0.1523
     21 C          60.3973   86.2864    8.2341 C.ar    1  UNL1        0.0382
     22 C          59.2653   87.0070    7.5638 C.ar    1  UNL1        0.0032
     23 C          59.0827   88.4804    7.7778 C.ar    1  UNL1        0.0015
     24 C          60.0322   89.2331    8.6621 C.ar    1  UNL1        0.0180
     25 C          61.1642   88.5124    9.3324 C.ar    1  UNL1        0.0886
     26 C          63.0882   85.1111    9.1397 C.3     1  UNL1        0.2525
     27 O          62.4787   86.3183    9.7886 O.3     1  UNL1       -0.4702
     28 C          65.8107   91.3819   14.9715 C.3     1  UNL1        0.0934
     29 N          65.5690   92.5979   15.8157 N.3     1  UNL1       -0.3174
     30 H          65.9250   93.4230   15.3332 H       1  UNL1        0.1192
     31 H          66.0499   92.4927   16.7091 H       1  UNL1        0.1192
@<TRIPOS>BOND
     1    26    27    1
     2    27    20    1
     3    20    21   ar
     4    21    22   ar
     5    22    23   ar
     6    23    24   ar
     7    24    25   ar
     8    25     1    1
     9     1     2    1
    10     2     3    1
    11     3     4   ar
    12     4     5   ar
    13     5     6    1
    14     5     7   ar
    15     7    28    1
    16    28    29    1
    17     7     8   ar
    18     8    12    1
    19    12    13   ar
    20    13    14   ar
    21    14    15   ar
    22    15    16    1
    23    15    17   ar
    24    17    18   ar
    25    18    19    1
    26     8     9   ar
    27     9    10    1
    28    10    11    2
    29    25    20   ar
    30    10     1   am
    31     9     3   ar
    32    18    12   ar
    33    29    30    1
    34    29    31    1
@<TRIPOS>MOLECULE
*****
 31 34 0 0 0
SMALL
GASTEIGER

@<TRIPOS>ATOM
      1 N          62.3025   89.2142   10.3707 N.am    1  UNL1       -0.2465
      2 C          63.0556   90.4595   10.0075 C.3     1  UNL1        0.1443
      3 C          63.8462   90.8896   11.2075 C.ar    1  UNL1        0.0833
      4 N          64.7728   92.0466   11.4368 N.ar    1  UNL1       -0.2524
      5 C          65.4350   92.2241   12.7711 C.ar    1  UNL1        0.0563
      6 C          66.3616   93.3812   13.0005 C.3     1  UNL1        0.0518
      7 C          65.1705   91.2447   13.8758 C.ar    1  UNL1        0.0072
      8 C          64.2438   90.0877   13.6465 C.ar    1  UNL1        0.0049
      9 C          63.5817   89.9101   12.3123 C.ar    1  UNL1        0.0689
     10 C          62.6276   88.8746   11.7952 C.2     1  UNL1        0.2543
     11 O          62.0926   87.7050   12.5669 O.2     1  UNL1       -0.2695
     12 C          63.9793   89.1082   14.7513 C.ar    1  UNL1        0.0106
     13 C          64.4124   87.6793   14.6065 C.ar    1  UNL1        0.0017
     14 C          64.1479   86.6998   15.7113 C.ar    1  UNL1        0.0114
     15 C          63.4504   87.1491   16.9610 C.ar    1  UNL1        0.0585
     16 CL         63.1859   86.1697   18.0657 Cl      1  UNL1       -0.0822
     17 C          63.0173   88.5779   17.1057 C.ar    1  UNL1        0.0228
     18 C          63.2818   89.5575   16.0009 C.ar    1  UNL1        0.0585
     19 CL         62.8488   90.9863   16.1457 Cl      1  UNL1       -0.0822
     20 C          60.0564   89.0208    9.0793 C.ar    1  UNL1        0.1523
     21 C          59.1392   88.2502    8.1766 C.ar    1  UNL1        0.0382
     22 C          59.5507   86.9025    7.6626 C.ar    1  UNL1        0.0032
     23 C          60.8795   86.3253    8.0513 C.ar    1  UNL1        0.0015
     24 C          61.7967   87.0959    8.9540 C.ar    1  UNL1        0.0180
     25 C          61.3852   88.4436    9.4680 C.ar    1  UNL1        0.0886
     26 C          59.4426   90.5806   11.0643 C.3     1  UNL1        0.2525
     27 O          59.6448   90.3685    9.5932 O.3     1  UNL1       -0.4702
     28 C          65.8326   91.4222   15.2101 C.3     1  UNL1        0.0934
     29 N          65.5644   92.6544   16.0224 N.3     1  UNL1       -0.3174
     30 H          65.9379   93.4698   15.5366 H       1  UNL1        0.1192
     31 H          66.0145   92.5657   16.9334 H       1  UNL1        0.1192
@<TRIPOS>BOND
     1    26    27    1
     2    27    20    1
     3    20    21   ar
     4    21    22   ar
     5    22    23   ar
     6    23    24   ar
     7    24    25   ar
     8    25     1    1
     9     1     2    1
    10     2     3    1
    11     3     4   ar
    12     4     5   ar
    13     5     6    1
    14     5     7   ar
    15     7    28    1
    16    28    29    1
    17     7     8   ar
    18     8    12    1
    19    12    13   ar
    20    13    14   ar
    21    14    15   ar
    22    15    16    1
    23    15    17   ar
    24    17    18   ar
    25    18    19    1
    26     8     9   ar
    27     9    10    1
    28    10    11    2
    29    25    20   ar
    30    10     1   am
    31     9     3   ar
    32    18    12   ar
    33    29    30    1
    34    29    31    1
@<TRIPOS>MOLECULE
*****
 31 34 0 0 0
SMALL
GASTEIGER

@<TRIPOS>ATOM
      1 N          64.2127   87.8703   14.3526 N.am    1  UNL1       -0.2465
      2 C          64.6873   86.6182   15.0287 C.3     1  UNL1        0.1443
      3 C          64.2400   85.4480   14.2038 C.ar    1  UNL1        0.0833
      4 N          64.4195   83.9692   14.3793 N.ar    1  UNL1       -0.2524
      5 C          63.8480   83.0192   13.3688 C.ar    1  UNL1        0.0563
      6 C          64.0275   81.5402   13.5443 C.3     1  UNL1        0.0518
      7 C          63.0970   83.5480   12.1830 C.ar    1  UNL1        0.0072
      8 C          62.9174   85.0268   12.0075 C.ar    1  UNL1        0.0049
      9 C          63.4889   85.9768   13.0179 C.ar    1  UNL1        0.0689
     10 C          63.4721   87.4739   13.1099 C.2     1  UNL1        0.2543
     11 O          62.8277   88.4102   12.1310 O.2     1  UNL1       -0.2695
     12 C          62.1663   85.5556   10.8217 C.ar    1  UNL1        0.0106
     13 C          60.9074   86.3460   11.0228 C.ar    1  UNL1        0.0017
     14 C          60.1563   86.8748    9.8370 C.ar    1  UNL1        0.0114
     15 C          60.6642   86.6133    8.4499 C.ar    1  UNL1        0.0585
     16 CL         59.9131   87.1421    7.2642 Cl      1  UNL1       -0.0822
     17 C          61.9231   85.8229    8.2489 C.ar    1  UNL1        0.0228
     18 C          62.6742   85.2940    9.4347 C.ar    1  UNL1        0.0585
     19 CL         63.9331   84.5037    9.2336 Cl      1  UNL1       -0.0822
     20 C          63.5850   89.8355   15.9318 C.ar    1  UNL1        0.1523
     21 C          63.8114   91.2379   16.4138 C.ar    1  UNL1        0.0382
     22 C          64.8917   92.0772   15.7986 C.ar    1  UNL1        0.0032
     23 C          65.7456   91.5143   14.7014 C.ar    1  UNL1        0.0015
     24 C          65.5193   90.1120   14.2194 C.ar    1  UNL1        0.0180
     25 C          64.4390   89.2726   14.8346 C.ar    1  UNL1        0.0886
     26 C          62.8599   87.9143   17.5234 C.3     1  UNL1        0.2525
     27 O          62.5048   88.9962   16.5470 O.3     1  UNL1       -0.4702
     28 C          62.5254   82.5980   11.1726 C.3     1  UNL1        0.0934
     29 N          63.4238   81.6306   10.4606 N.3     1  UNL1       -0.3174
     30 H          64.0722   82.1446    9.8641 H       1  UNL1        0.1192
     31 H          62.8607   81.0018    9.8880 H       1  UNL1        0.1192
@<TRIPOS>BOND
     1    26    27    1
     2    27    20    1
     3    20    21   ar
     4    21    22   ar
     5    22    23   ar
     6    23    24   ar
     7    24    25   ar
     8    25     1    1
     9     1     2    1
    10     2     3    1
    11     3     4   ar
    12     4     5   ar
    13     5     6    1
    14     5     7   ar
    15     7    28    1
    16    28    29    1
    17     7     8   ar
    18     8    12    1
    19    12    13   ar
    20    13    14   ar
    21    14    15   ar
    22    15    16    1
    23    15    17   ar
    24    17    18   ar
    25    18    19    1
    26     8     9   ar
    27     9    10    1
    28    10    11    2
    29    25    20   ar
    30    10     1   am
    31     9     3   ar
    32    18    12   ar
    33    29    30    1
    34    29    31    1
