@<TRIPOS>MOLECULE
*****
 30 33 0 0 0
SMALL
GASTEIGER

@<TRIPOS>ATOM
      1 C          63.7884   90.8215   12.6662 C.ar    1  UNL1        0.0805
      2 N          64.4473   91.4184   11.4581 N.ar    1  UNL1       -0.2278
      3 C          65.5453   92.3251   11.9294 C.ar    1  UNL1        0.1630
      4 S          65.5651   92.2887   13.4289 S.2     1  UNL1       -0.0473
      5 C          64.4791   91.3593   13.8842 C.ar    1  UNL1        0.0991
      6 N          66.4627   93.1275   11.0549 N.pl3   1  UNL1       -0.2830
      7 C          66.2946   94.6148   10.9568 C.3     1  UNL1        0.1247
      8 C          67.2120   95.4172   10.0823 C.3     1  UNL1        0.1636
      9 O          68.2973   94.7322    9.3059 O.3     1  UNL1       -0.3501
     10 C          68.4653   93.2448    9.4040 C.3     1  UNL1        0.1636
     11 C          67.5480   92.4425   10.2785 C.3     1  UNL1        0.1247
     12 C          64.1431   91.0263   15.3077 C.2     1  UNL1        0.2500
     13 N          63.8765   89.6039   15.7023 N.am    1  UNL1       -0.3249
     14 O          64.0736   92.1157   16.3365 O.2     1  UNL1       -0.2698
     15 H          63.9221   88.8889   15.0271 H       1  UNL1        0.1453
     16 H          63.6559   89.3853   16.6366 H       1  UNL1        0.1453
     17 C          62.6402   89.8563   12.6578 C.3     1  UNL1        0.1319
     18 C          63.2752   85.1666   12.1695 C.3     1  UNL1        0.0222
     19 C          62.4761   86.0842   11.2924 C.3     1  UNL1        0.0842
     20 C          61.7086   85.6856   10.0668 C.3     1  UNL1        0.0483
     21 C          61.0624   86.9166    9.5038 C.ar    1  UNL1       -0.0006
     22 C          60.1863   87.1316    8.3054 C.ar    1  UNL1        0.0318
     23 BR         59.8182   85.9721    7.4278 Br      1  UNL1       -0.0493
     24 C          59.6783   88.5059    7.9846 C.ar    1  UNL1        0.0065
     25 C          60.0465   89.6654    8.8622 C.ar    1  UNL1        0.0018
     26 C          60.9225   89.4504   10.0606 C.ar    1  UNL1        0.0146
     27 C          61.4305   88.0760   10.3814 C.ar    1  UNL1        0.0503
     28 N          62.3042   87.5616   11.4868 N.am    1  UNL1       -0.2599
     29 C          62.9013   88.3807   12.5925 C.2     1  UNL1        0.2353
     30 O          63.7595   87.7242   13.6330 O.2     1  UNL1       -0.2741
@<TRIPOS>BOND
     1    18    19    1
     2    19    20    1
     3    20    21    1
     4    21    22   ar
     5    22    23    1
     6    22    24   ar
     7    24    25   ar
     8    25    26   ar
     9    26    27   ar
    10    27    28    1
    11    28    29   am
    12    29    30    2
    13    29    17    1
    14    17     1    1
    15     1     2   ar
    16     2     3   ar
    17     3     6    1
    18     6     7    1
    19     7     8    1
    20     8     9    1
    21     9    10    1
    22    10    11    1
    23     3     4   ar
    24     4     5   ar
    25     5    12    1
    26    12    13   am
    27    12    14    2
    28    28    19    1
    29     5     1   ar
    30    27    21   ar
    31    11     6    1
    32    13    15    1
    33    13    16    1
@<TRIPOS>MOLECULE
*****
 30 33 0 0 0
SMALL
GASTEIGER

@<TRIPOS>ATOM
      1 C          64.8090   91.8317   12.7860 C.ar    1  UNL1        0.0805
      2 N          65.0049   92.4981   11.4565 N.ar    1  UNL1       -0.2278
      3 C          66.0616   93.5505   11.6168 C.ar    1  UNL1        0.1630
      4 S          66.5189   93.5346   13.0454 S.2     1  UNL1       -0.0473
      5 C          65.7446   92.4722   13.7679 C.ar    1  UNL1        0.0991
      6 N          66.5717   94.4594   10.5380 N.pl3   1  UNL1       -0.2830
      7 C          66.5134   95.9471   10.7209 C.3     1  UNL1        0.1247
      8 C          67.0235   96.8559    9.6421 C.3     1  UNL1        0.1636
      9 O          67.5918   96.2771    8.3804 O.3     1  UNL1       -0.3501
     10 C          67.6500   94.7894    8.1975 C.3     1  UNL1        0.1636
     11 C          67.1400   93.8806    9.2763 C.3     1  UNL1        0.1247
     12 C          65.8820   92.1134   15.2179 C.2     1  UNL1        0.2500
     13 N          67.2437   91.9232   15.8177 N.am    1  UNL1       -0.3249
     14 O          64.6578   91.9449   16.0681 O.2     1  UNL1       -0.2698
     15 H          68.0472   92.0338   15.2597 H       1  UNL1        0.1453
     16 H          67.3339   91.6877   16.7694 H       1  UNL1        0.1453
     17 C          63.8463   90.7200   13.0816 C.3     1  UNL1        0.1319
     18 C          61.4616   88.3878    9.6890 C.3     1  UNL1        0.0222
     19 C          62.1668   87.8119   10.8811 C.3     1  UNL1        0.0842
     20 C          62.2546   86.3570   11.2357 C.3     1  UNL1        0.0483
     21 C          63.0502   86.2357   12.5016 C.ar    1  UNL1       -0.0006
     22 C          63.4589   85.0470   13.3201 C.ar    1  UNL1        0.0318
     23 BR         63.0550   83.6672   12.8924 Br      1  UNL1       -0.0493
     24 C          64.2716   85.2382   14.5662 C.ar    1  UNL1        0.0065
     25 C          64.6755   86.6180   14.9939 C.ar    1  UNL1        0.0018
     26 C          64.2667   87.8067   14.1755 C.ar    1  UNL1        0.0146
     27 C          63.4541   87.6155   12.9293 C.ar    1  UNL1        0.0503
     28 N          62.9081   88.5896   11.9278 N.am    1  UNL1       -0.2599
     29 C          63.0743   90.0799   11.9662 C.2     1  UNL1        0.2353
     30 O          62.4685   90.9302   10.8891 O.2     1  UNL1       -0.2741
@<TRIPOS>BOND
     1    18    19    1
     2    19    20    1
     3    20    21    1
     4    21    22   ar
     5    22    23    1
     6    22    24   ar
     7    24    25   ar
     8    25    26   ar
     9    26    27   ar
    10    27    28    1
    11    28    29   am
    12    29    30    2
    13    29    17    1
    14    17     1    1
    15     1     2   ar
    16     2     3   ar
    17     3     6    1
    18     6     7    1
    19     7     8    1
    20     8     9    1
    21     9    10    1
    22    10    11    1
    23     3     4   ar
    24     4     5   ar
    25     5    12    1
    26    12    13   am
    27    12    14    2
    28    28    19    1
    29     5     1   ar
    30    27    21   ar
    31    11     6    1
    32    13    15    1
    33    13    16    1
@<TRIPOS>MOLECULE
*****
 30 33 0 0 0
SMALL
GASTEIGER

@<TRIPOS>ATOM
      1 C          63.5030   90.7210   12.6674 C.ar    1  UNL1        0.0805
      2 N          64.1316   91.3507   11.4597 N.ar    1  UNL1       -0.2278
      3 C          65.2677   92.2127   11.9248 C.ar    1  UNL1        0.1630
      4 S          65.3413   92.1158   13.4199 S.2     1  UNL1       -0.0473
      5 C          64.2506   91.1938   13.8788 C.ar    1  UNL1        0.0991
      6 N          66.1715   93.0285   11.0487 N.pl3   1  UNL1       -0.2830
      7 C          66.0045   94.5175   10.9787 C.3     1  UNL1        0.1247
      8 C          66.9083   95.3332   10.1026 C.3     1  UNL1        0.1636
      9 O          67.9792   94.6600    9.2965 O.3     1  UNL1       -0.3501
     10 C          68.1463   93.1709    9.3665 C.3     1  UNL1        0.1636
     11 C          67.2424   92.3552   10.2426 C.3     1  UNL1        0.1247
     12 C          63.9588   90.8117   15.2997 C.2     1  UNL1        0.2500
     13 N          63.8746   89.3645   15.6850 N.am    1  UNL1       -0.3249
     14 O          63.7511   91.8769   16.3352 O.2     1  UNL1       -0.2698
     15 H          64.0109   88.6654   15.0054 H       1  UNL1        0.1453
     16 H          63.6831   89.1137   16.6176 H       1  UNL1        0.1453
     17 C          62.3323   89.7832   12.6641 C.3     1  UNL1        0.1319
     18 C          60.8031   87.7510    8.6433 C.3     1  UNL1        0.0222
     19 C          61.5414   87.1059    9.7785 C.3     1  UNL1        0.0842
     20 C          61.9459   85.6638    9.8610 C.3     1  UNL1        0.0483
     21 C          62.6593   85.4563   11.1640 C.ar    1  UNL1       -0.0006
     22 C          63.2805   84.2407   11.7857 C.ar    1  UNL1        0.0318
     23 BR         63.2440   82.9269   11.0628 Br      1  UNL1       -0.0493
     24 C          63.9380   84.3390   13.1303 C.ar    1  UNL1        0.0065
     25 C          63.9744   85.6528   13.8532 C.ar    1  UNL1        0.0018
     26 C          63.3533   86.8683   13.2315 C.ar    1  UNL1        0.0146
     27 C          62.6957   86.7701   11.8869 C.ar    1  UNL1        0.0503
     28 N          62.0048   87.7896   11.0306 N.am    1  UNL1       -0.2599
     29 C          61.8113   89.2384   11.3673 C.2     1  UNL1        0.2353
     30 O          61.0967   90.1427   10.4071 O.2     1  UNL1       -0.2741
@<TRIPOS>BOND
     1    18    19    1
     2    19    20    1
     3    20    21    1
     4    21    22   ar
     5    22    23    1
     6    22    24   ar
     7    24    25   ar
     8    25    26   ar
     9    26    27   ar
    10    27    28    1
    11    28    29   am
    12    29    30    2
    13    29    17    1
    14    17     1    1
    15     1     2   ar
    16     2     3   ar
    17     3     6    1
    18     6     7    1
    19     7     8    1
    20     8     9    1
    21     9    10    1
    22    10    11    1
    23     3     4   ar
    24     4     5   ar
    25     5    12    1
    26    12    13   am
    27    12    14    2
    28    28    19    1
    29     5     1   ar
    30    27    21   ar
    31    11     6    1
    32    13    15    1
    33    13    16    1
@<TRIPOS>MOLECULE
*****
 30 33 0 0 0
SMALL
GASTEIGER

@<TRIPOS>ATOM
      1 C          64.4590   91.3055   13.3384 C.ar    1  UNL1        0.0805
      2 N          64.9269   91.5570   11.9356 N.ar    1  UNL1       -0.2278
      3 C          66.0395   92.5615   11.9912 C.ar    1  UNL1        0.1630
      4 S          66.2592   92.9309   13.4283 S.2     1  UNL1       -0.0473
      5 C          65.2824   92.1545   14.2610 C.ar    1  UNL1        0.0991
      6 N          66.7990   93.1019   10.8160 N.pl3   1  UNL1       -0.2830
      7 C          67.7886   92.2325   10.0984 C.3     1  UNL1        0.1247
      8 C          68.5481   92.7729    8.9232 C.3     1  UNL1        0.1636
      9 O          68.3180   94.1827    8.4656 O.3     1  UNL1       -0.3501
     10 C          67.3284   95.0521    9.1831 C.3     1  UNL1        0.1636
     11 C          66.5689   94.5117   10.3583 C.3     1  UNL1        0.1247
     12 C          65.1519   92.2165   15.7540 C.2     1  UNL1        0.2500
     13 N          66.2943   92.7185   16.5865 N.am    1  UNL1       -0.3249
     14 O          63.8792   91.7764   16.4145 O.2     1  UNL1       -0.2698
     15 H          67.1297   93.0073   16.1530 H       1  UNL1        0.1453
     16 H          66.2087   92.7591   17.5664 H       1  UNL1        0.1453
     17 C          63.3606   90.3692   13.7469 C.3     1  UNL1        0.1319
     18 C          63.9213   85.6554   13.4290 C.3     1  UNL1        0.0222
     19 C          63.1686   86.5584   12.4974 C.3     1  UNL1        0.0842
     20 C          62.4334   86.1343   11.2606 C.3     1  UNL1        0.0483
     21 C          61.8292   87.3579   10.6379 C.ar    1  UNL1       -0.0006
     22 C          60.9964   87.5497    9.4052 C.ar    1  UNL1        0.0318
     23 BR         60.6347   86.3693    8.5533 Br      1  UNL1       -0.0493
     24 C          60.5254   88.9220    9.0244 C.ar    1  UNL1        0.0065
     25 C          60.8872   90.1024    9.8763 C.ar    1  UNL1        0.0018
     26 C          61.7200   89.9105   11.1090 C.ar    1  UNL1        0.0146
     27 C          62.1910   88.5383   11.4898 C.ar    1  UNL1        0.0503
     28 N          63.0188   88.0442   12.6390 N.am    1  UNL1       -0.2599
     29 C          63.5954   88.8878   13.7371 C.2     1  UNL1        0.2353
     30 O          64.4070   88.2499   14.8255 O.2     1  UNL1       -0.2741
@<TRIPOS>BOND
     1    18    19    1
     2    19    20    1
     3    20    21    1
     4    21    22   ar
     5    22    23    1
     6    22    24   ar
     7    24    25   ar
     8    25    26   ar
     9    26    27   ar
    10    27    28    1
    11    28    29   am
    12    29    30    2
    13    29    17    1
    14    17     1    1
    15     1     2   ar
    16     2     3   ar
    17     3     6    1
    18     6     7    1
    19     7     8    1
    20     8     9    1
    21     9    10    1
    22    10    11    1
    23     3     4   ar
    24     4     5   ar
    25     5    12    1
    26    12    13   am
    27    12    14    2
    28    28    19    1
    29     5     1   ar
    30    27    21   ar
    31    11     6    1
    32    13    15    1
    33    13    16    1
@<TRIPOS>MOLECULE
*****
 30 33 0 0 0
SMALL
GASTEIGER

@<TRIPOS>ATOM
      1 C          63.7255   87.0511   14.7052 C.ar    1  UNL1        0.0805
      2 N          63.7569   85.8322   13.8316 N.ar    1  UNL1       -0.2278
      3 C          63.2803   84.6660   14.6458 C.ar    1  UNL1        0.1630
      4 S          62.9543   85.1642   16.0226 S.2     1  UNL1       -0.0473
      5 C          63.2295   86.6383   16.0593 C.ar    1  UNL1        0.0991
      6 N          63.1522   83.2502   14.1673 N.pl3   1  UNL1       -0.2830
      7 C          62.0095   82.3999   14.6379 C.3     1  UNL1        0.1247
      8 C          61.8814   80.9841   14.1594 C.3     1  UNL1        0.1636
      9 O          62.8959   80.4185   13.2102 O.3     1  UNL1       -0.3501
     10 C          64.0385   81.2688   12.7395 C.3     1  UNL1        0.1636
     11 C          64.1666   82.6846   13.2181 C.3     1  UNL1        0.1247
     12 C          63.0416   87.5411   17.2424 C.2     1  UNL1        0.2500
     13 N          63.0916   89.0298   17.0652 N.am    1  UNL1       -0.3249
     14 O          62.8038   86.9553   18.6026 O.2     1  UNL1       -0.2698
     15 H          63.2477   89.4144   16.1725 H       1  UNL1        0.1453
     16 H          62.9683   89.6224   17.8417 H       1  UNL1        0.1453
     17 C          64.1207   88.4392   14.2964 C.3     1  UNL1        0.1319
     18 C          62.7282   90.5277   10.2548 C.3     1  UNL1        0.0222
     19 C          63.6911   91.0521   11.2785 C.3     1  UNL1        0.0842
     20 C          64.4131   92.3655   11.2184 C.3     1  UNL1        0.0483
     21 C          65.2693   92.4804   12.4447 C.ar    1  UNL1       -0.0006
     22 C          66.1996   93.5557   12.9222 C.ar    1  UNL1        0.0318
     23 BR         66.3926   94.7981   12.1042 Br      1  UNL1       -0.0493
     24 C          66.9369   93.3887   14.2177 C.ar    1  UNL1        0.0065
     25 C          66.7440   92.1463   15.0357 C.ar    1  UNL1        0.0018
     26 C          65.8137   91.0709   14.5582 C.ar    1  UNL1        0.0146
     27 C          65.0763   91.2379   13.2627 C.ar    1  UNL1        0.0503
     28 N          64.1009   90.3553   12.5420 N.am    1  UNL1       -0.2599
     29 C          63.6199   89.0116   13.0036 C.2     1  UNL1        0.2353
     30 O          62.6379   88.2402   12.1724 O.2     1  UNL1       -0.2741
@<TRIPOS>BOND
     1    18    19    1
     2    19    20    1
     3    20    21    1
     4    21    22   ar
     5    22    23    1
     6    22    24   ar
     7    24    25   ar
     8    25    26   ar
     9    26    27   ar
    10    27    28    1
    11    28    29   am
    12    29    30    2
    13    29    17    1
    14    17     1    1
    15     1     2   ar
    16     2     3   ar
    17     3     6    1
    18     6     7    1
    19     7     8    1
    20     8     9    1
    21     9    10    1
    22    10    11    1
    23     3     4   ar
    24     4     5   ar
    25     5    12    1
    26    12    13   am
    27    12    14    2
    28    28    19    1
    29     5     1   ar
    30    27    21   ar
    31    11     6    1
    32    13    15    1
    33    13    16    1
@<TRIPOS>MOLECULE
*****
 30 33 0 0 0
SMALL
GASTEIGER

@<TRIPOS>ATOM
      1 C          62.2784   89.0316   11.6403 C.ar    1  UNL1        0.0805
      2 N          63.0195   87.9130   12.3108 N.ar    1  UNL1       -0.2278
      3 C          62.5121   86.6183   11.7484 C.ar    1  UNL1        0.1630
      4 S          61.4574   86.9366   10.7304 S.2     1  UNL1       -0.0473
      5 C          61.3130   88.4282   10.6636 C.ar    1  UNL1        0.0991
      6 N          62.9777   85.2461   12.1360 N.pl3   1  UNL1       -0.2830
      7 C          63.6586   85.0297   13.4550 C.3     1  UNL1        0.1247
      8 C          64.1241   83.6575   13.8426 C.3     1  UNL1        0.1636
      9 O          63.9088   82.5016   12.9112 O.3     1  UNL1       -0.3501
     10 C          63.2279   82.7179   11.5922 C.3     1  UNL1        0.1636
     11 C          62.7624   84.0901   11.2046 C.3     1  UNL1        0.1247
     12 C          60.3689   89.1837    9.7759 C.2     1  UNL1        0.2500
     13 N          60.0203   88.6443    8.4203 N.am    1  UNL1       -0.3249
     14 O          59.7734   90.4784   10.2438 O.2     1  UNL1       -0.2698
     15 H          60.4111   87.7945    8.1132 H       1  UNL1        0.1453
     16 H          59.4006   89.1402    7.8377 H       1  UNL1        0.1453
     17 C          62.4692   90.4964   11.9008 C.3     1  UNL1        0.1319
     18 C          66.1631   92.8984   10.1061 C.3     1  UNL1        0.0222
     19 C          65.8677   92.6047   11.5471 C.3     1  UNL1        0.0842
     20 C          66.7019   93.0235   12.7213 C.3     1  UNL1        0.0483
     21 C          66.0360   92.5184   13.9668 C.ar    1  UNL1       -0.0006
     22 C          66.4031   92.6296   15.4169 C.ar    1  UNL1        0.0318
     23 BR         67.6490   93.3606   15.8213 Br      1  UNL1       -0.0493
     24 C          65.5244   92.0097   16.4626 C.ar    1  UNL1        0.0065
     25 C          64.2786   91.2787   16.0583 C.ar    1  UNL1        0.0018
     26 C          63.9115   91.1675   14.6082 C.ar    1  UNL1        0.0146
     27 C          64.7902   91.7873   13.5625 C.ar    1  UNL1        0.0503
     28 N          64.6862   91.8407   12.0670 N.am    1  UNL1       -0.2599
     29 C          63.5926   91.2362   11.2372 C.2     1  UNL1        0.2353
     30 O          63.6225   91.3714    9.7435 O.2     1  UNL1       -0.2741
@<TRIPOS>BOND
     1    18    19    1
     2    19    20    1
     3    20    21    1
     4    21    22   ar
     5    22    23    1
     6    22    24   ar
     7    24    25   ar
     8    25    26   ar
     9    26    27   ar
    10    27    28    1
    11    28    29   am
    12    29    30    2
    13    29    17    1
    14    17     1    1
    15     1     2   ar
    16     2     3   ar
    17     3     6    1
    18     6     7    1
    19     7     8    1
    20     8     9    1
    21     9    10    1
    22    10    11    1
    23     3     4   ar
    24     4     5   ar
    25     5    12    1
    26    12    13   am
    27    12    14    2
    28    28    19    1
    29     5     1   ar
    30    27    21   ar
    31    11     6    1
    32    13    15    1
    33    13    16    1
@<TRIPOS>MOLECULE
*****
 30 33 0 0 0
SMALL
GASTEIGER

@<TRIPOS>ATOM
      1 C          63.3152   88.2849   12.5572 C.ar    1  UNL1        0.0805
      2 N          62.5539   87.5532   11.4919 N.ar    1  UNL1       -0.2278
      3 C          61.7555   88.5602   10.7182 C.ar    1  UNL1        0.1630
      4 S          62.0234   89.9143   11.3054 S.2     1  UNL1       -0.0473
      5 C          62.9874   89.7441   12.4420 C.ar    1  UNL1        0.0991
      6 N          60.8485   88.2650    9.5605 N.pl3   1  UNL1       -0.2830
      7 C          60.4590   86.8490    9.2549 C.3     1  UNL1        0.1247
      8 C          59.5520   86.5539    8.0973 C.3     1  UNL1        0.1636
      9 O          59.0344   87.6746    7.2453 O.3     1  UNL1       -0.3501
     10 C          59.4238   89.0906    7.5509 C.3     1  UNL1        0.1636
     11 C          60.3309   89.3858    8.7085 C.3     1  UNL1        0.1247
     12 C          63.5285   90.8407   13.3108 C.2     1  UNL1        0.2500
     13 N          63.2622   90.8284   14.7870 N.am    1  UNL1       -0.3249
     14 O          64.3358   91.9494   12.7035 O.2     1  UNL1       -0.2698
     15 H          62.7323   90.1007   15.1856 H       1  UNL1        0.1453
     16 H          63.6173   91.5481   15.3572 H       1  UNL1        0.1453
     17 C          64.2417   87.6661   13.5615 C.3     1  UNL1        0.1319
     18 C          62.4754   85.7412   17.5377 C.3     1  UNL1        0.0222
     19 C          62.6433   85.0921   16.1959 C.3     1  UNL1        0.0842
     20 C          62.2769   83.6799   15.8475 C.3     1  UNL1        0.0483
     21 C          62.6143   83.4563   14.4031 C.ar    1  UNL1       -0.0006
     22 C          62.4722   82.2572   13.5133 C.ar    1  UNL1        0.0318
     23 BR         61.8973   80.9832   14.0576 Br      1  UNL1       -0.0493
     24 C          62.9051   82.3321   12.0791 C.ar    1  UNL1        0.0065
     25 C          63.4801   83.6062   11.5348 C.ar    1  UNL1        0.0018
     26 C          63.6221   84.8053   12.4246 C.ar    1  UNL1        0.0146
     27 C          63.1892   84.7303   13.8588 C.ar    1  UNL1        0.0503
     28 N          63.2072   85.7413   14.9668 N.am    1  UNL1       -0.2599
     29 C          63.7021   87.1535   14.8638 C.2     1  UNL1        0.2353
     30 O          63.6574   88.0534   16.0632 O.2     1  UNL1       -0.2741
@<TRIPOS>BOND
     1    18    19    1
     2    19    20    1
     3    20    21    1
     4    21    22   ar
     5    22    23    1
     6    22    24   ar
     7    24    25   ar
     8    25    26   ar
     9    26    27   ar
    10    27    28    1
    11    28    29   am
    12    29    30    2
    13    29    17    1
    14    17     1    1
    15     1     2   ar
    16     2     3   ar
    17     3     6    1
    18     6     7    1
    19     7     8    1
    20     8     9    1
    21     9    10    1
    22    10    11    1
    23     3     4   ar
    24     4     5   ar
    25     5    12    1
    26    12    13   am
    27    12    14    2
    28    28    19    1
    29     5     1   ar
    30    27    21   ar
    31    11     6    1
    32    13    15    1
    33    13    16    1
@<TRIPOS>MOLECULE
*****
 30 33 0 0 0
SMALL
GASTEIGER

@<TRIPOS>ATOM
      1 C          62.3631   88.8344   11.8558 C.ar    1  UNL1        0.0805
      2 N          63.5919   89.1970   12.6359 N.ar    1  UNL1       -0.2278
      3 C          63.8126   90.6738   12.4930 C.ar    1  UNL1        0.1630
      4 S          62.7202   91.2239   11.6246 S.2     1  UNL1       -0.0473
      5 C          61.8244   90.0870   11.2308 C.ar    1  UNL1        0.0991
      6 N          64.9296   91.4621   13.1101 N.pl3   1  UNL1       -0.2830
      7 C          65.5369   91.0140   14.4064 C.3     1  UNL1        0.1247
      8 C          66.6539   91.8023   15.0236 C.3     1  UNL1        0.1636
      9 O          67.1636   93.0388   14.3444 O.3     1  UNL1       -0.3501
     10 C          66.5563   93.4869   13.0481 C.3     1  UNL1        0.1636
     11 C          65.4393   92.6986   12.4309 C.3     1  UNL1        0.1247
     12 C          60.6040   90.1855   10.3641 C.2     1  UNL1        0.2500
     13 N          60.6195   89.6102    8.9788 N.am    1  UNL1       -0.3249
     14 O          59.3683   90.8593   10.8826 O.2     1  UNL1       -0.2698
     15 H          61.4306   89.1680    8.6385 H       1  UNL1        0.1453
     16 H          59.8186   89.6749    8.4100 H       1  UNL1        0.1453
     17 C          61.7761   87.4603   11.7240 C.3     1  UNL1        0.1319
     18 C          63.3988   84.2745    8.5850 C.3     1  UNL1        0.0222
     19 C          63.2077   84.0974   10.0622 C.3     1  UNL1        0.0842
     20 C          63.4994   82.8522   10.8460 C.3     1  UNL1        0.0483
     21 C          63.1633   83.1196   12.2832 C.ar    1  UNL1       -0.0006
     22 C          63.2475   82.2609   13.5102 C.ar    1  UNL1        0.0318
     23 BR         63.7470   80.8504   13.4057 Br      1  UNL1       -0.0493
     24 C          62.8322   82.8128   14.8416 C.ar    1  UNL1        0.0065
     25 C          62.3327   84.2233   14.9461 C.ar    1  UNL1        0.0018
     26 C          62.2485   85.0820   13.7191 C.ar    1  UNL1        0.0146
     27 C          62.6638   84.5301   12.3876 C.ar    1  UNL1        0.0503
     28 N          62.6912   85.1344   11.0150 N.am    1  UNL1       -0.2599
     29 C          62.2752   86.5306   10.6580 C.2     1  UNL1        0.2353
     30 O          62.3583   86.9972    9.2347 O.2     1  UNL1       -0.2741
@<TRIPOS>BOND
     1    18    19    1
     2    19    20    1
     3    20    21    1
     4    21    22   ar
     5    22    23    1
     6    22    24   ar
     7    24    25   ar
     8    25    26   ar
     9    26    27   ar
    10    27    28    1
    11    28    29   am
    12    29    30    2
    13    29    17    1
    14    17     1    1
    15     1     2   ar
    16     2     3   ar
    17     3     6    1
    18     6     7    1
    19     7     8    1
    20     8     9    1
    21     9    10    1
    22    10    11    1
    23     3     4   ar
    24     4     5   ar
    25     5    12    1
    26    12    13   am
    27    12    14    2
    28    28    19    1
    29     5     1   ar
    30    27    21   ar
    31    11     6    1
    32    13    15    1
    33    13    16    1
@<TRIPOS>MOLECULE
*****
 30 33 0 0 0
SMALL
GASTEIGER

@<TRIPOS>ATOM
      1 C          63.2708   89.1713   12.6804 C.ar    1  UNL1        0.0805
      2 N          63.6076   90.3950   11.8809 N.ar    1  UNL1       -0.2278
      3 C          64.6189   91.1893   12.6532 C.ar    1  UNL1        0.1630
      4 S          64.9071   90.4566   13.9299 S.2     1  UNL1       -0.0473
      5 C          64.0739   89.2093   13.9467 C.ar    1  UNL1        0.0991
      6 N          65.2340   92.4883   12.2240 N.pl3   1  UNL1       -0.2830
      7 C          65.1410   92.9254   10.7921 C.3     1  UNL1        0.1247
      8 C          65.7561   94.2244   10.3630 C.3     1  UNL1        0.1636
      9 O          66.4643   95.0863   11.3658 O.3     1  UNL1       -0.3501
     10 C          66.5574   94.6492   12.7977 C.3     1  UNL1        0.1636
     11 C          65.9423   93.3502   13.2268 C.3     1  UNL1        0.1247
     12 C          64.0483   88.1808   15.0383 C.2     1  UNL1        0.2500
     13 N          63.1740   88.3842   16.2402 N.am    1  UNL1       -0.3249
     14 O          64.8968   86.9488   14.9279 O.2     1  UNL1       -0.2698
     15 H          62.6171   89.1928   16.3126 H       1  UNL1        0.1453
     16 H          63.1572   87.7092   16.9566 H       1  UNL1        0.1453
     17 C          62.3010   88.0980   12.2833 C.3     1  UNL1        0.1319
     18 C          62.8811   85.4968    8.3422 C.3     1  UNL1        0.0222
     19 C          62.8150   85.0163    9.7616 C.3     1  UNL1        0.0842
     20 C          62.9220   83.5907   10.2158 C.3     1  UNL1        0.0483
     21 C          62.8034   83.5704   11.7110 C.ar    1  UNL1       -0.0006
     22 C          62.8362   82.4478   12.7052 C.ar    1  UNL1        0.0318
     23 BR         63.0165   81.0348   12.2353 Br      1  UNL1       -0.0493
     24 C          62.6888   82.7383   14.1694 C.ar    1  UNL1        0.0065
     25 C          62.5086   84.1513   14.6393 C.ar    1  UNL1        0.0018
     26 C          62.4757   85.2739   13.6450 C.ar    1  UNL1        0.0146
     27 C          62.6231   84.9835   12.1809 C.ar    1  UNL1        0.0503
     28 N          62.6303   85.8770   10.9761 N.am    1  UNL1       -0.2599
     29 C          62.4792   87.3694   10.9844 C.2     1  UNL1        0.2353
     30 O          62.5064   88.1332    9.6936 O.2     1  UNL1       -0.2741
@<TRIPOS>BOND
     1    18    19    1
     2    19    20    1
     3    20    21    1
     4    21    22   ar
     5    22    23    1
     6    22    24   ar
     7    24    25   ar
     8    25    26   ar
     9    26    27   ar
    10    27    28    1
    11    28    29   am
    12    29    30    2
    13    29    17    1
    14    17     1    1
    15     1     2   ar
    16     2     3   ar
    17     3     6    1
    18     6     7    1
    19     7     8    1
    20     8     9    1
    21     9    10    1
    22    10    11    1
    23     3     4   ar
    24     4     5   ar
    25     5    12    1
    26    12    13   am
    27    12    14    2
    28    28    19    1
    29     5     1   ar
    30    27    21   ar
    31    11     6    1
    32    13    15    1
    33    13    16    1
