@<TRIPOS>MOLECULE
*****
 44 49 0 0 0
SMALL
GASTEIGER

@<TRIPOS>ATOM
      1 N          64.6393   90.0258   13.5447 N.ar    1  UNL1       -0.2823
      2 C          64.5129   88.8898   14.5161 C.ar    1  UNL1        0.1831
      3 N          63.5788   87.8761   13.9246 N.ar    1  UNL1       -0.2236
      4 C          63.1280   88.3855   12.5878 C.ar    1  UNL1        0.0992
      5 C          62.2053   87.8113   11.5540 C.ar    1  UNL1        0.0221
      6 C          61.9380   88.5656   10.2854 C.ar    1  UNL1        0.0194
      7 C          62.5934   89.8943   10.0506 C.ar    1  UNL1        0.0031
      8 C          63.5161   90.4685   11.0844 C.ar    1  UNL1        0.0192
      9 C          63.7834   89.7142   12.3530 C.ar    1  UNL1        0.0835
     10 C          61.0153   87.9914    9.2514 C.ar    1  UNL1        0.0858
     11 C          61.0409   86.5207    8.9573 C.ar    1  UNL1        0.0399
     12 C          60.1182   85.9465    7.9235 C.ar    1  UNL1        0.1034
     13 N          59.1699   86.8429    7.1837 N.ar    1  UNL1       -0.2123
     14 C          59.1443   88.3136    7.4778 C.ar    1  UNL1        0.2168
     15 N          60.0670   88.8878    8.5117 N.ar    1  UNL1       -0.2138
     16 N          58.1960   89.2100    6.7381 N.pl3   1  UNL1       -0.3045
     17 H          57.2253   89.1199    6.8752 H       1  UNL1        0.1496
     18 C          58.7268   90.2436    5.7895 C.3     1  UNL1        0.0745
     19 C          60.1996   90.3259    5.5174 C.3     1  UNL1        0.0369
     20 C          60.7304   91.3596    4.5687 C.3     1  UNL1        0.0738
     21 N          59.7884   92.3109    3.8923 N.3     1  UNL1       -0.2714
     22 C          60.3192   93.3445    2.9437 C.3     1  UNL1        0.0896
     23 C          58.3156   92.2285    4.1644 C.3     1  UNL1        0.0738
     24 C          57.7848   91.1949    5.1130 C.3     1  UNL1        0.0369
     25 C          66.3174   93.5258   13.5450 C.ar    1  UNL1        0.1512
     26 C          65.2485   92.5853   13.0727 C.ar    1  UNL1        0.0619
     27 C          65.4750   91.2573   13.7322 C.ar    1  UNL1        0.0987
     28 S          66.6839   91.3769   14.6122 S.2     1  UNL1       -0.0618
     29 C          67.2045   92.7789   14.4964 C.ar    1  UNL1        0.1178
     30 C          68.4021   93.3362   15.2074 C.2     1  UNL1        0.2518
     31 N          69.7802   92.8893   14.8187 N.am    1  UNL1       -0.3248
     32 O          68.2214   94.3403   16.3070 O.2     1  UNL1       -0.2697
     33 H          69.8988   92.2303   14.0970 H       1  UNL1        0.1453
     34 H          70.5662   93.2551   15.2854 H       1  UNL1        0.1453
     35 O          66.4720   94.9610   13.1375 O.3     1  UNL1       -0.4740
     36 C          65.5554   96.5615   11.3077 C.3     1  UNL1        0.0523
     37 C          66.3483   95.3481   11.6936 C.3     1  UNL1        0.1891
     38 C          67.0175   94.5219   10.6356 C.ar    1  UNL1        0.0278
     39 C          67.1715   93.0419   10.8254 C.ar    1  UNL1        0.0000
     40 C          67.8407   92.2157    9.7673 C.ar    1  UNL1       -0.0002
     41 C          68.3560   92.8694    8.5195 C.ar    1  UNL1        0.0008
     42 C          68.2021   94.3493    8.3297 C.ar    1  UNL1        0.0112
     43 C          67.5329   95.1756    9.3877 C.ar    1  UNL1        0.0570
     44 CL         67.3789   96.6555    9.1979 Cl      1  UNL1       -0.0825
@<TRIPOS>BOND
     1    37    36    1
     2    37    35    1
     3    35    25    1
     4    25    26   ar
     5    26    27   ar
     6    27     1    1
     7     1     2   ar
     8     2     3   ar
     9     3     4   ar
    10     4     5   ar
    11     5     6   ar
    12     6    10    1
    13    10    11   ar
    14    11    12   ar
    15    12    13   ar
    16    13    14   ar
    17    14    16    1
    18    16    18    1
    19    18    19    1
    20    19    20    1
    21    20    21    1
    22    21    22    1
    23    21    23    1
    24    23    24    1
    25    14    15   ar
    26     6     7   ar
    27     7     8   ar
    28     8     9   ar
    29    27    28   ar
    30    28    29   ar
    31    29    30    1
    32    30    31   am
    33    30    32    2
    34    37    38    1
    35    38    39   ar
    36    39    40   ar
    37    40    41   ar
    38    41    42   ar
    39    42    43   ar
    40    43    44    1
    41    29    25   ar
    42    43    38   ar
    43     9     1   ar
    44     9     4   ar
    45    15    10   ar
    46    24    18    1
    47    16    17    1
    48    31    33    1
    49    31    34    1
@<TRIPOS>MOLECULE
*****
 44 49 0 0 0
SMALL
GASTEIGER

@<TRIPOS>ATOM
      1 N          59.1638   90.6021    5.7572 N.ar    1  UNL1       -0.2823
      2 C          57.7590   91.0919    5.5659 C.ar    1  UNL1        0.1831
      3 N          57.7533   92.0417    4.4050 N.ar    1  UNL1       -0.2236
      4 C          59.1546   92.1390    3.8787 C.ar    1  UNL1        0.0992
      5 C          59.7494   92.9227    2.7465 C.ar    1  UNL1        0.0221
      6 C          61.2159   92.8168    2.4501 C.ar    1  UNL1        0.0194
      7 C          62.0877   91.9270    3.2858 C.ar    1  UNL1        0.0031
      8 C          61.4929   91.1433    4.4180 C.ar    1  UNL1        0.0192
      9 C          60.0263   91.2492    4.7144 C.ar    1  UNL1        0.0835
     10 C          61.8108   93.6005    1.3178 C.ar    1  UNL1        0.0858
     11 C          62.8828   94.6141    1.5891 C.ar    1  UNL1        0.0399
     12 C          63.4777   95.3978    0.4569 C.ar    1  UNL1        0.1034
     13 N          63.0006   95.1681   -0.9465 N.ar    1  UNL1       -0.2123
     14 C          61.9286   94.1545   -1.2178 C.ar    1  UNL1        0.2168
     15 N          61.3337   93.3707   -0.0856 N.ar    1  UNL1       -0.2138
     16 N          61.4515   93.9247   -2.6212 N.pl3   1  UNL1       -0.3045
     17 H          60.4888   93.9545   -2.8249 H       1  UNL1        0.1496
     18 C          62.4413   93.6496   -3.7142 C.3     1  UNL1        0.0745
     19 C          62.2615   94.2780   -5.0643 C.3     1  UNL1        0.0369
     20 C          63.2514   94.0029   -6.1574 C.3     1  UNL1        0.0738
     21 N          64.4208   93.0994   -5.9002 N.3     1  UNL1       -0.2714
     22 C          65.4105   92.8244   -6.9932 C.3     1  UNL1        0.0896
     23 C          64.6005   92.4711   -4.5501 C.3     1  UNL1        0.0738
     24 C          63.6108   92.7462   -3.4571 C.3     1  UNL1        0.0369
     25 C          60.4630   88.7174    8.8917 C.ar    1  UNL1        0.1512
     26 C          60.1033   89.9898    8.1835 C.ar    1  UNL1        0.0619
     27 C          59.6251   89.6350    6.8069 C.ar    1  UNL1        0.0987
     28 S          59.6892   88.1432    6.6641 S.2     1  UNL1       -0.0618
     29 C          60.2070   87.5761    7.9526 C.ar    1  UNL1        0.1178
     30 C          60.4298   86.1227    8.2498 C.2     1  UNL1        0.2518
     31 N          60.9857   85.7057    9.5791 N.am    1  UNL1       -0.3248
     32 O          60.0965   85.0865    7.2177 O.2     1  UNL1       -0.2697
     33 H          61.2045   86.3858   10.2564 H       1  UNL1        0.1453
     34 H          61.1319   84.7518    9.7741 H       1  UNL1        0.1453
     35 O          60.9866   88.6058   10.2928 O.3     1  UNL1       -0.4740
     36 C          59.8252   90.3166   11.8659 C.3     1  UNL1        0.0523
     37 C          61.0570   89.8232   11.1664 C.3     1  UNL1        0.1891
     38 C          62.3591   90.5471   11.3405 C.ar    1  UNL1        0.0278
     39 C          62.9629   91.2925   10.1872 C.ar    1  UNL1        0.0000
     40 C          64.2650   92.0164   10.3613 C.ar    1  UNL1       -0.0002
     41 C          64.9634   91.9950   11.6886 C.ar    1  UNL1        0.0008
     42 C          64.3598   91.2496   12.8417 C.ar    1  UNL1        0.0112
     43 C          63.0576   90.5257   12.6677 C.ar    1  UNL1        0.0570
     44 CL         62.4539   89.7803   13.8209 Cl      1  UNL1       -0.0825
@<TRIPOS>BOND
     1    37    36    1
     2    37    35    1
     3    35    25    1
     4    25    26   ar
     5    26    27   ar
     6    27     1    1
     7     1     2   ar
     8     2     3   ar
     9     3     4   ar
    10     4     5   ar
    11     5     6   ar
    12     6    10    1
    13    10    11   ar
    14    11    12   ar
    15    12    13   ar
    16    13    14   ar
    17    14    16    1
    18    16    18    1
    19    18    19    1
    20    19    20    1
    21    20    21    1
    22    21    22    1
    23    21    23    1
    24    23    24    1
    25    14    15   ar
    26     6     7   ar
    27     7     8   ar
    28     8     9   ar
    29    27    28   ar
    30    28    29   ar
    31    29    30    1
    32    30    31   am
    33    30    32    2
    34    37    38    1
    35    38    39   ar
    36    39    40   ar
    37    40    41   ar
    38    41    42   ar
    39    42    43   ar
    40    43    44    1
    41    29    25   ar
    42    43    38   ar
    43     9     1   ar
    44     9     4   ar
    45    15    10   ar
    46    24    18    1
    47    16    17    1
    48    31    33    1
    49    31    34    1
@<TRIPOS>MOLECULE
*****
 44 49 0 0 0
SMALL
GASTEIGER

@<TRIPOS>ATOM
      1 N          61.6634   86.2592    9.8806 N.ar    1  UNL1       -0.2823
      2 C          61.4643   85.0189    9.0608 C.ar    1  UNL1        0.1831
      3 N          60.7105   85.3990    7.8209 N.ar    1  UNL1       -0.2236
      4 C          60.4438   86.8741    7.8744 C.ar    1  UNL1        0.0992
      5 C          59.7408   87.8019    6.9285 C.ar    1  UNL1        0.0221
      6 C          59.6267   89.2614    7.2555 C.ar    1  UNL1        0.0194
      7 C          60.2156   89.7930    8.5285 C.ar    1  UNL1        0.0031
      8 C          60.9187   88.8652    9.4745 C.ar    1  UNL1        0.0192
      9 C          61.0327   87.4058    9.1474 C.ar    1  UNL1        0.0835
     10 C          58.9236   90.1893    6.3095 C.ar    1  UNL1        0.0858
     11 C          57.4635   90.0017    6.0215 C.ar    1  UNL1        0.0399
     12 C          56.7604   90.9296    5.0756 C.ar    1  UNL1        0.1034
     13 N          57.5175   92.0450    4.4176 N.ar    1  UNL1       -0.2123
     14 C          58.9776   92.2325    4.7057 C.ar    1  UNL1        0.2168
     15 N          59.6806   91.3046    5.6516 N.ar    1  UNL1       -0.2138
     16 N          59.7346   93.3478    4.0478 N.pl3   1  UNL1       -0.3045
     17 H          59.8933   94.1890    4.5341 H       1  UNL1        0.1496
     18 C          60.2499   93.1815    2.6489 C.3     1  UNL1        0.0745
     19 C          61.6770   92.7817    2.4179 C.3     1  UNL1        0.0369
     20 C          62.1922   92.6154    1.0190 C.3     1  UNL1        0.0738
     21 N          61.2804   92.8490   -0.1489 N.3     1  UNL1       -0.2714
     22 C          61.7956   92.6827   -1.5477 C.3     1  UNL1        0.0896
     23 C          59.8532   93.2488    0.0822 C.3     1  UNL1        0.0738
     24 C          59.3379   93.4151    1.4810 C.3     1  UNL1        0.0369
     25 C          63.5503   87.1994   13.1397 C.ar    1  UNL1        0.1512
     26 C          62.9375   87.5796   11.8244 C.ar    1  UNL1        0.0619
     27 C          62.3693   86.3389   11.2018 C.ar    1  UNL1        0.0987
     28 S          62.6310   85.1918   12.1322 S.2     1  UNL1       -0.0618
     29 C          63.3609   85.7236   13.3298 C.ar    1  UNL1        0.1178
     30 C          63.8207   84.9206   14.5105 C.2     1  UNL1        0.2518
     31 N          65.0477   85.3348   15.2673 N.am    1  UNL1       -0.3248
     32 O          63.0534   83.7033   14.9343 O.2     1  UNL1       -0.2697
     33 H          65.5513   86.1337   14.9891 H       1  UNL1        0.1453
     34 H          65.3495   84.8077   16.0422 H       1  UNL1        0.1453
     35 O          64.2327   88.1313   14.0966 O.3     1  UNL1       -0.4740
     36 C          62.9217   89.9995   15.3380 C.3     1  UNL1        0.0523
     37 C          63.7897   89.5609   14.1960 C.3     1  UNL1        0.1891
     38 C          64.2146   90.5520   13.1532 C.ar    1  UNL1        0.0278
     39 C          63.4504   90.6617   11.8672 C.ar    1  UNL1        0.0000
     40 C          63.8754   91.6527   10.8245 C.ar    1  UNL1       -0.0002
     41 C          65.0645   92.5340   11.0678 C.ar    1  UNL1        0.0008
     42 C          65.8287   92.4243   12.3538 C.ar    1  UNL1        0.0112
     43 C          65.4038   91.4332   13.3966 C.ar    1  UNL1        0.0570
     44 CL         66.1679   91.3235   14.6826 Cl      1  UNL1       -0.0825
@<TRIPOS>BOND
     1    37    36    1
     2    37    35    1
     3    35    25    1
     4    25    26   ar
     5    26    27   ar
     6    27     1    1
     7     1     2   ar
     8     2     3   ar
     9     3     4   ar
    10     4     5   ar
    11     5     6   ar
    12     6    10    1
    13    10    11   ar
    14    11    12   ar
    15    12    13   ar
    16    13    14   ar
    17    14    16    1
    18    16    18    1
    19    18    19    1
    20    19    20    1
    21    20    21    1
    22    21    22    1
    23    21    23    1
    24    23    24    1
    25    14    15   ar
    26     6     7   ar
    27     7     8   ar
    28     8     9   ar
    29    27    28   ar
    30    28    29   ar
    31    29    30    1
    32    30    31   am
    33    30    32    2
    34    37    38    1
    35    38    39   ar
    36    39    40   ar
    37    40    41   ar
    38    41    42   ar
    39    42    43   ar
    40    43    44    1
    41    29    25   ar
    42    43    38   ar
    43     9     1   ar
    44     9     4   ar
    45    15    10   ar
    46    24    18    1
    47    16    17    1
    48    31    33    1
    49    31    34    1
@<TRIPOS>MOLECULE
*****
 44 49 0 0 0
SMALL
GASTEIGER

@<TRIPOS>ATOM
      1 N          59.1641   90.5976    5.7623 N.ar    1  UNL1       -0.2823
      2 C          57.7582   91.0835    5.5691 C.ar    1  UNL1        0.1831
      3 N          57.7514   92.0327    4.4077 N.ar    1  UNL1       -0.2236
      4 C          59.1530   92.1335    3.8830 C.ar    1  UNL1        0.0992
      5 C          59.7471   92.9183    2.7512 C.ar    1  UNL1        0.0221
      6 C          61.2143   92.8161    2.4565 C.ar    1  UNL1        0.0194
      7 C          62.0874   91.9291    3.2937 C.ar    1  UNL1        0.0031
      8 C          61.4934   91.1443    4.4256 C.ar    1  UNL1        0.0192
      9 C          60.0262   91.2465    4.7203 C.ar    1  UNL1        0.0835
     10 C          61.8084   93.6009    1.3246 C.ar    1  UNL1        0.0858
     11 C          63.2975   93.7380    1.2074 C.ar    1  UNL1        0.0399
     12 C          63.8916   94.5228    0.0755 C.ar    1  UNL1        0.1034
     13 N          62.9966   95.1705   -0.9392 N.ar    1  UNL1       -0.2123
     14 C          61.5075   95.0333   -0.8220 C.ar    1  UNL1        0.2168
     15 N          60.9134   94.2485    0.3099 N.ar    1  UNL1       -0.2138
     16 N          60.6125   95.6809   -1.8366 N.pl3   1  UNL1       -0.3045
     17 H          60.9893   96.3050   -2.4983 H       1  UNL1        0.1496
     18 C          59.1435   95.3777   -1.8431 C.3     1  UNL1        0.0745
     19 C          58.1652   96.3967   -1.3386 C.3     1  UNL1        0.0369
     20 C          56.6961   96.0934   -1.3451 C.3     1  UNL1        0.0738
     21 N          56.2055   94.7712   -1.8560 N.3     1  UNL1       -0.2714
     22 C          54.7365   94.4680   -1.8625 C.3     1  UNL1        0.0896
     23 C          57.1839   93.7523   -2.3605 C.3     1  UNL1        0.0738
     24 C          58.6529   94.0555   -2.3540 C.3     1  UNL1        0.0369
     25 C          60.4818   88.7192    8.8930 C.ar    1  UNL1        0.1512
     26 C          60.1300   89.9910    8.1797 C.ar    1  UNL1        0.0619
     27 C          59.6268   89.6323    6.8130 C.ar    1  UNL1        0.0987
     28 S          59.6675   88.1386    6.6815 S.2     1  UNL1       -0.0618
     29 C          60.1959   87.5743    7.9669 C.ar    1  UNL1        0.1178
     30 C          60.4022   86.1203    8.2727 C.2     1  UNL1        0.2518
     31 N          60.9345   85.7036    9.6117 N.am    1  UNL1       -0.3248
     32 O          60.0761   85.0830    7.2393 O.2     1  UNL1       -0.2697
     33 H          61.1485   86.3844   10.2899 H       1  UNL1        0.1453
     34 H          61.0699   84.7493    9.8123 H       1  UNL1        0.1453
     35 O          61.0241   88.6112   10.2872 O.3     1  UNL1       -0.4740
     36 C          59.8537   90.3145   11.8617 C.3     1  UNL1        0.0523
     37 C          61.0885   89.8271   11.1632 C.3     1  UNL1        0.1891
     38 C          62.3876   90.5555   11.3408 C.ar    1  UNL1        0.0278
     39 C          62.9886   91.3083   10.1910 C.ar    1  UNL1        0.0000
     40 C          64.2878   92.0368   10.3685 C.ar    1  UNL1       -0.0002
     41 C          64.9859   92.0125   11.6959 C.ar    1  UNL1        0.0008
     42 C          64.3850   91.2597   12.8457 C.ar    1  UNL1        0.0112
     43 C          63.0858   90.5312   12.6682 C.ar    1  UNL1        0.0570
     44 CL         62.4848   89.7785   13.8180 Cl      1  UNL1       -0.0825
@<TRIPOS>BOND
     1    37    36    1
     2    37    35    1
     3    35    25    1
     4    25    26   ar
     5    26    27   ar
     6    27     1    1
     7     1     2   ar
     8     2     3   ar
     9     3     4   ar
    10     4     5   ar
    11     5     6   ar
    12     6    10    1
    13    10    11   ar
    14    11    12   ar
    15    12    13   ar
    16    13    14   ar
    17    14    16    1
    18    16    18    1
    19    18    19    1
    20    19    20    1
    21    20    21    1
    22    21    22    1
    23    21    23    1
    24    23    24    1
    25    14    15   ar
    26     6     7   ar
    27     7     8   ar
    28     8     9   ar
    29    27    28   ar
    30    28    29   ar
    31    29    30    1
    32    30    31   am
    33    30    32    2
    34    37    38    1
    35    38    39   ar
    36    39    40   ar
    37    40    41   ar
    38    41    42   ar
    39    42    43   ar
    40    43    44    1
    41    29    25   ar
    42    43    38   ar
    43     9     1   ar
    44     9     4   ar
    45    15    10   ar
    46    24    18    1
    47    16    17    1
    48    31    33    1
    49    31    34    1
@<TRIPOS>MOLECULE
*****
 44 49 0 0 0
SMALL
GASTEIGER

@<TRIPOS>ATOM
      1 N          58.9972   90.1559    6.2748 N.ar    1  UNL1       -0.2823
      2 C          57.5538   90.4621    6.0053 C.ar    1  UNL1        0.1831
      3 N          57.4863   91.3552    4.8020 N.ar    1  UNL1       -0.2236
      4 C          58.8881   91.6009    4.3279 C.ar    1  UNL1        0.0992
      5 C          59.4348   92.4038    3.1849 C.ar    1  UNL1        0.0221
      6 C          60.9153   92.4655    2.9523 C.ar    1  UNL1        0.0194
      7 C          61.8491   91.7243    3.8626 C.ar    1  UNL1        0.0031
      8 C          61.3024   90.9214    5.0055 C.ar    1  UNL1        0.0192
      9 C          59.8219   90.8597    5.2382 C.ar    1  UNL1        0.0835
     10 C          61.4621   93.2684    1.8093 C.ar    1  UNL1        0.0858
     11 C          62.9295   93.5720    1.7402 C.ar    1  UNL1        0.0399
     12 C          63.4763   94.3749    0.5973 C.ar    1  UNL1        0.1034
     13 N          62.5557   94.8743   -0.4767 N.ar    1  UNL1       -0.2123
     14 C          61.0884   94.5707   -0.4076 C.ar    1  UNL1        0.2168
     15 N          60.5416   93.7678    0.7354 N.ar    1  UNL1       -0.2138
     16 N          60.1679   95.0700   -1.4815 N.pl3   1  UNL1       -0.3045
     17 H          60.2518   95.9937   -1.8115 H       1  UNL1        0.1496
     18 C          59.1195   94.1619   -2.0526 C.3     1  UNL1        0.0745
     19 C          57.9158   93.7984   -1.2347 C.3     1  UNL1        0.0369
     20 C          56.8673   92.8903   -1.8059 C.3     1  UNL1        0.0738
     21 N          57.0227   92.3456   -3.1948 N.3     1  UNL1       -0.2714
     22 C          55.9743   91.4375   -3.7659 C.3     1  UNL1        0.0896
     23 C          58.2264   92.7091   -4.0127 C.3     1  UNL1        0.0738
     24 C          59.2748   93.6172   -3.4416 C.3     1  UNL1        0.0369
     25 C          60.2859   87.3717    8.6525 C.ar    1  UNL1        0.1512
     26 C          59.7557   87.8162    7.3216 C.ar    1  UNL1        0.0619
     27 C          59.5237   89.2967    7.3860 C.ar    1  UNL1        0.0987
     28 S          59.9105   89.7673    8.7567 S.2     1  UNL1       -0.0618
     29 C          60.3816   88.5776    9.5394 C.ar    1  UNL1        0.1178
     30 C          60.8638   88.5913   10.9598 C.2     1  UNL1        0.2518
     31 N          59.8905   88.3955   12.0842 N.am    1  UNL1       -0.3248
     32 O          62.3193   88.8009   11.2558 O.2     1  UNL1       -0.2697
     33 H          58.9352   88.2579   11.8900 H       1  UNL1        0.1453
     34 H          60.2069   88.4045   13.0164 H       1  UNL1        0.1453
     35 O          60.6555   85.9679    9.0300 O.3     1  UNL1       -0.4740
     36 C          63.0975   85.8373    8.1528 C.3     1  UNL1        0.0523
     37 C          62.0947   85.6028    9.2434 C.3     1  UNL1        0.1891
     38 C          62.5310   85.0033   10.5473 C.ar    1  UNL1        0.0278
     39 C          62.0234   85.5695   11.8403 C.ar    1  UNL1        0.0000
     40 C          62.4597   84.9699   13.1442 C.ar    1  UNL1       -0.0002
     41 C          63.4035   83.8042   13.1551 C.ar    1  UNL1        0.0008
     42 C          63.9110   83.2379   11.8622 C.ar    1  UNL1        0.0112
     43 C          63.4748   83.8375   10.5582 C.ar    1  UNL1        0.0570
     44 CL         63.9823   83.2712    9.2653 Cl      1  UNL1       -0.0825
@<TRIPOS>BOND
     1    37    36    1
     2    37    35    1
     3    35    25    1
     4    25    26   ar
     5    26    27   ar
     6    27     1    1
     7     1     2   ar
     8     2     3   ar
     9     3     4   ar
    10     4     5   ar
    11     5     6   ar
    12     6    10    1
    13    10    11   ar
    14    11    12   ar
    15    12    13   ar
    16    13    14   ar
    17    14    16    1
    18    16    18    1
    19    18    19    1
    20    19    20    1
    21    20    21    1
    22    21    22    1
    23    21    23    1
    24    23    24    1
    25    14    15   ar
    26     6     7   ar
    27     7     8   ar
    28     8     9   ar
    29    27    28   ar
    30    28    29   ar
    31    29    30    1
    32    30    31   am
    33    30    32    2
    34    37    38    1
    35    38    39   ar
    36    39    40   ar
    37    40    41   ar
    38    41    42   ar
    39    42    43   ar
    40    43    44    1
    41    29    25   ar
    42    43    38   ar
    43     9     1   ar
    44     9     4   ar
    45    15    10   ar
    46    24    18    1
    47    16    17    1
    48    31    33    1
    49    31    34    1
@<TRIPOS>MOLECULE
*****
 44 49 0 0 0
SMALL
GASTEIGER

@<TRIPOS>ATOM
      1 N          58.9559   90.0926    6.2467 N.ar    1  UNL1       -0.2823
      2 C          57.4740   90.2959    6.1344 C.ar    1  UNL1        0.1831
      3 N          57.2223   91.2624    5.0153 N.ar    1  UNL1       -0.2236
      4 C          58.5486   91.6565    4.4360 C.ar    1  UNL1        0.0992
      5 C          58.9191   92.5803    3.3138 C.ar    1  UNL1        0.0221
      6 C          60.3610   92.7811    2.9527 C.ar    1  UNL1        0.0194
      7 C          61.4325   92.0582    3.7138 C.ar    1  UNL1        0.0031
      8 C          61.0620   91.1344    4.8360 C.ar    1  UNL1        0.0192
      9 C          59.6201   90.9336    5.1971 C.ar    1  UNL1        0.0835
     10 C          60.7315   93.7050    1.8305 C.ar    1  UNL1        0.0858
     11 C          62.0989   94.3200    1.7858 C.ar    1  UNL1        0.0399
     12 C          62.4695   95.2438    0.6637 C.ar    1  UNL1        0.1034
     13 N          61.4726   95.5526   -0.4139 N.ar    1  UNL1       -0.2123
     14 C          60.1053   94.9375   -0.3692 C.ar    1  UNL1        0.2168
     15 N          59.7347   94.0137    0.7530 N.ar    1  UNL1       -0.2138
     16 N          59.1085   95.2462   -1.4467 N.pl3   1  UNL1       -0.3045
     17 H          59.0376   96.1607   -1.8045 H       1  UNL1        0.1496
     18 C          58.2196   94.1616   -1.9792 C.3     1  UNL1        0.0745
     19 C          58.7638   93.1539   -2.9478 C.3     1  UNL1        0.0369
     20 C          57.8748   92.0693   -3.4803 C.3     1  UNL1        0.0738
     21 N          56.4418   91.9924   -3.0440 N.3     1  UNL1       -0.2714
     22 C          55.5529   90.9079   -3.5765 C.3     1  UNL1        0.0896
     23 C          55.8976   93.0002   -2.0754 C.3     1  UNL1        0.0738
     24 C          56.7864   94.0848   -1.5430 C.3     1  UNL1        0.0369
     25 C          60.8965   88.4368    9.1722 C.ar    1  UNL1        0.1512
     26 C          60.3425   89.6519    8.4890 C.ar    1  UNL1        0.0619
     27 C          59.6516   89.2044    7.2352 C.ar    1  UNL1        0.0987
     28 S          59.7785   87.7126    7.1432 S.2     1  UNL1       -0.0618
     29 C          60.5479   87.2382    8.3403 C.ar    1  UNL1        0.1178
     30 C          60.9058   85.8150    8.6511 C.2     1  UNL1        0.2518
     31 N          61.2921   85.4265   10.0475 N.am    1  UNL1       -0.3248
     32 O          60.8775   84.7803    7.5654 O.2     1  UNL1       -0.2697
     33 H          61.3107   86.1056   10.7600 H       1  UNL1        0.1453
     34 H          61.5270   84.4925   10.2514 H       1  UNL1        0.1453
     35 O          61.6642   88.4227   10.4607 O.3     1  UNL1       -0.4740
     36 C          60.0670   90.0058   11.7618 C.3     1  UNL1        0.0523
     37 C          61.4528   89.5106   11.4715 C.3     1  UNL1        0.1891
     38 C          62.6274   90.1032   12.1922 C.ar    1  UNL1        0.0278
     39 C          62.9164   89.7055   13.6093 C.ar    1  UNL1        0.0000
     40 C          64.0909   90.2981   14.3299 C.ar    1  UNL1       -0.0002
     41 C          64.9764   91.2884   13.6334 C.ar    1  UNL1        0.0008
     42 C          64.6874   91.6861   12.2164 C.ar    1  UNL1        0.0112
     43 C          63.5128   91.0935   11.4957 C.ar    1  UNL1        0.0570
     44 CL         63.2238   91.4912   10.0786 Cl      1  UNL1       -0.0825
@<TRIPOS>BOND
     1    37    36    1
     2    37    35    1
     3    35    25    1
     4    25    26   ar
     5    26    27   ar
     6    27     1    1
     7     1     2   ar
     8     2     3   ar
     9     3     4   ar
    10     4     5   ar
    11     5     6   ar
    12     6    10    1
    13    10    11   ar
    14    11    12   ar
    15    12    13   ar
    16    13    14   ar
    17    14    16    1
    18    16    18    1
    19    18    19    1
    20    19    20    1
    21    20    21    1
    22    21    22    1
    23    21    23    1
    24    23    24    1
    25    14    15   ar
    26     6     7   ar
    27     7     8   ar
    28     8     9   ar
    29    27    28   ar
    30    28    29   ar
    31    29    30    1
    32    30    31   am
    33    30    32    2
    34    37    38    1
    35    38    39   ar
    36    39    40   ar
    37    40    41   ar
    38    41    42   ar
    39    42    43   ar
    40    43    44    1
    41    29    25   ar
    42    43    38   ar
    43     9     1   ar
    44     9     4   ar
    45    15    10   ar
    46    24    18    1
    47    16    17    1
    48    31    33    1
    49    31    34    1
@<TRIPOS>MOLECULE
*****
 44 49 0 0 0
SMALL
GASTEIGER

@<TRIPOS>ATOM
      1 N          61.3898   86.5910    9.6724 N.ar    1  UNL1       -0.2823
      2 C          61.0430   85.3211    8.9532 C.ar    1  UNL1        0.1831
      3 N          60.2902   85.6846    7.7078 N.ar    1  UNL1       -0.2236
      4 C          60.1716   87.1791    7.6573 C.ar    1  UNL1        0.0992
      5 C          59.5327   88.1022    6.6626 C.ar    1  UNL1        0.0221
      6 C          59.5733   89.5854    6.8820 C.ar    1  UNL1        0.0194
      7 C          60.2529   90.1456    8.0963 C.ar    1  UNL1        0.0031
      8 C          60.8919   89.2225    9.0910 C.ar    1  UNL1        0.0192
      9 C          60.8512   87.7392    8.8715 C.ar    1  UNL1        0.0835
     10 C          58.9343   90.5086    5.8873 C.ar    1  UNL1        0.0858
     11 C          57.4461   90.4958    5.7005 C.ar    1  UNL1        0.0399
     12 C          56.8071   91.4189    4.7058 C.ar    1  UNL1        0.1034
     13 N          57.6563   92.3549    3.8978 N.ar    1  UNL1       -0.2123
     14 C          59.1446   92.3677    4.0846 C.ar    1  UNL1        0.2168
     15 N          59.7836   91.4445    5.0794 N.ar    1  UNL1       -0.2138
     16 N          59.9939   93.3036    3.2767 N.pl3   1  UNL1       -0.3045
     17 H          60.6396   93.8950    3.7267 H       1  UNL1        0.1496
     18 C          59.8593   93.3385    1.7832 C.3     1  UNL1        0.0745
     19 C          59.4633   94.6113    1.0953 C.3     1  UNL1        0.0369
     20 C          59.3287   94.6460   -0.3983 C.3     1  UNL1        0.0738
     21 N          59.5900   93.4081   -1.2039 N.3     1  UNL1       -0.2714
     22 C          59.4554   93.4429   -2.6974 C.3     1  UNL1        0.0896
     23 C          59.9860   92.1353   -0.5161 C.3     1  UNL1        0.0738
     24 C          60.1206   92.1004    0.9774 C.3     1  UNL1        0.0369
     25 C          63.3121   86.1057   13.0094 C.ar    1  UNL1        0.1512
     26 C          62.6022   85.5450   11.8128 C.ar    1  UNL1        0.0619
     27 C          62.1429   86.6944   10.9656 C.ar    1  UNL1        0.0987
     28 S          62.5688   87.9655   11.6385 S.2     1  UNL1       -0.0618
     29 C          63.2915   87.6017   12.9016 C.ar    1  UNL1        0.1178
     30 C          63.8886   88.5648   13.8845 C.2     1  UNL1        0.2518
     31 N          64.0075   88.1837   15.3304 N.am    1  UNL1       -0.3248
     32 O          64.3668   89.9090   13.4214 O.2     1  UNL1       -0.2697
     33 H          63.6937   87.3014   15.6343 H       1  UNL1        0.1453
     34 H          64.3994   88.8157   15.9754 H       1  UNL1        0.1453
     35 O          63.9335   85.3101   14.1187 O.3     1  UNL1       -0.4740
     36 C          62.5667   84.6396   16.2240 C.3     1  UNL1        0.0523
     37 C          63.1141   84.3022   14.8689 C.3     1  UNL1        0.1891
     38 C          62.8423   82.9568   14.2639 C.ar    1  UNL1        0.0278
     39 C          61.6160   82.1898   14.6612 C.ar    1  UNL1        0.0000
     40 C          61.3441   80.8444   14.0562 C.ar    1  UNL1       -0.0002
     41 C          62.2985   80.2660   13.0539 C.ar    1  UNL1        0.0008
     42 C          63.5247   81.0330   12.6567 C.ar    1  UNL1        0.0112
     43 C          63.7967   82.3785   13.2616 C.ar    1  UNL1        0.0570
     44 CL         65.0229   83.1454   12.8643 Cl      1  UNL1       -0.0825
@<TRIPOS>BOND
     1    37    36    1
     2    37    35    1
     3    35    25    1
     4    25    26   ar
     5    26    27   ar
     6    27     1    1
     7     1     2   ar
     8     2     3   ar
     9     3     4   ar
    10     4     5   ar
    11     5     6   ar
    12     6    10    1
    13    10    11   ar
    14    11    12   ar
    15    12    13   ar
    16    13    14   ar
    17    14    16    1
    18    16    18    1
    19    18    19    1
    20    19    20    1
    21    20    21    1
    22    21    22    1
    23    21    23    1
    24    23    24    1
    25    14    15   ar
    26     6     7   ar
    27     7     8   ar
    28     8     9   ar
    29    27    28   ar
    30    28    29   ar
    31    29    30    1
    32    30    31   am
    33    30    32    2
    34    37    38    1
    35    38    39   ar
    36    39    40   ar
    37    40    41   ar
    38    41    42   ar
    39    42    43   ar
    40    43    44    1
    41    29    25   ar
    42    43    38   ar
    43     9     1   ar
    44     9     4   ar
    45    15    10   ar
    46    24    18    1
    47    16    17    1
    48    31    33    1
    49    31    34    1
