@<TRIPOS>MOLECULE
*****
 24 27 0 0 0
SMALL
GASTEIGER

@<TRIPOS>ATOM
      1 N          64.1778   90.9190   13.7432 N.ar    1  UNL1       -0.3100
      2 C          65.3484   91.6678   13.1783 C.ar    1  UNL1        0.1317
      3 N          65.1035   91.8734   11.7128 N.ar    1  UNL1       -0.2300
      4 C          63.7816   91.2518   11.3720 C.ar    1  UNL1        0.0984
      5 C          63.0249   91.1466   10.0811 C.ar    1  UNL1        0.0206
      6 C          61.6962   90.4516   10.0452 C.ar    1  UNL1        0.0016
      7 C          61.1241   89.8617   11.3001 C.ar    1  UNL1        0.0016
      8 C          61.8807   89.9669   12.5909 C.ar    1  UNL1        0.0188
      9 C          63.2095   90.6619   12.6269 C.ar    1  UNL1        0.0789
     10 C          66.5524   92.1298   13.9444 C.3     1  UNL1        0.1199
     11 C          67.9291   91.8316   13.4290 C.3     1  UNL1        0.0871
     12 N          69.1332   92.2936   14.1951 N.3     1  UNL1       -0.2957
     13 C          68.9605   93.0537   15.4765 C.3     1  UNL1        0.0804
     14 C          67.5838   93.3519   15.9920 C.3     1  UNL1        0.0750
     15 S          66.3797   92.8899   15.2259 S.3     1  UNL1       -0.1306
     16 H          69.6695   92.8925   13.5674 H       1  UNL1        0.1233
     17 C          64.0058   90.5007   15.1734 C.3     1  UNL1        0.1339
     18 F          63.3989   84.6921   16.5485 F       1  UNL1       -0.2042
     19 C          63.5507   86.1442   16.2047 C.ar    1  UNL1        0.1401
     20 C          62.9632   87.1927   17.1023 C.ar    1  UNL1        0.0294
     21 C          63.1149   88.6449   16.7585 C.ar    1  UNL1       -0.0001
     22 C          63.8541   89.0486   15.5172 C.ar    1  UNL1        0.0006
     23 C          64.4415   88.0000   14.6197 C.ar    1  UNL1       -0.0001
     24 C          64.2898   86.5479   14.9635 C.ar    1  UNL1        0.0294
@<TRIPOS>BOND
     1    18    19    1
     2    19    20   ar
     3    20    21   ar
     4    21    22   ar
     5    22    17    1
     6    17     1    1
     7     1     2   ar
     8    10     2    1
     9    10    11    1
    10    11    12    1
    11    12    13    1
    12    13    14    1
    13    14    15    1
    14     2     3   ar
    15     3     4   ar
    16     4     5   ar
    17     5     6   ar
    18     6     7   ar
    19     7     8   ar
    20     8     9   ar
    21    22    23   ar
    22    23    24   ar
    23    24    19   ar
    24     9     1   ar
    25    15    10    1
    26     9     4   ar
    27    12    16    1
@<TRIPOS>MOLECULE
*****
 24 27 0 0 0
SMALL
GASTEIGER

@<TRIPOS>ATOM
      1 N          62.2185   86.8740   11.8330 N.ar    1  UNL1       -0.3100
      2 C          63.0948   86.2802   12.8959 C.ar    1  UNL1        0.1317
      3 N          63.9393   87.3799   13.4681 N.ar    1  UNL1       -0.2300
      4 C          63.5850   88.6533   12.7589 C.ar    1  UNL1        0.0984
      5 C          64.0934   90.0572   12.9027 C.ar    1  UNL1        0.0206
      6 C          63.5383   91.1483   12.0360 C.ar    1  UNL1        0.0016
      7 C          62.4748   90.8356   11.0255 C.ar    1  UNL1        0.0016
      8 C          61.9664   89.4318   10.8817 C.ar    1  UNL1        0.0188
      9 C          62.5215   88.3406   11.7484 C.ar    1  UNL1        0.0789
     10 C          63.1218   84.8397   13.3132 C.3     1  UNL1        0.1199
     11 C          62.4050   84.4057   14.5573 C.3     1  UNL1        0.0871
     12 N          62.4319   82.9652   14.9747 N.3     1  UNL1       -0.2957
     13 C          63.1757   81.9587   14.1479 C.3     1  UNL1        0.0804
     14 C          63.8925   82.3926   12.9038 C.3     1  UNL1        0.0750
     15 S          63.8656   83.8331   12.4865 S.3     1  UNL1       -0.1306
     16 H          61.4619   82.6526   15.0168 H       1  UNL1        0.1233
     17 C          61.2154   86.1315   11.0009 C.3     1  UNL1        0.1339
     18 F          62.5498   84.5924    5.3573 F       1  UNL1       -0.2042
     19 C          62.2162   84.9772    6.7682 C.ar    1  UNL1        0.1401
     20 C          63.2268   84.7784    7.8587 C.ar    1  UNL1        0.0294
     21 C          62.8932   85.1632    9.2696 C.ar    1  UNL1       -0.0001
     22 C          61.5490   85.7467    9.5901 C.ar    1  UNL1        0.0006
     23 C          60.5384   85.9455    8.4995 C.ar    1  UNL1       -0.0001
     24 C          60.8720   85.5607    7.0886 C.ar    1  UNL1        0.0294
@<TRIPOS>BOND
     1    18    19    1
     2    19    20   ar
     3    20    21   ar
     4    21    22   ar
     5    22    17    1
     6    17     1    1
     7     1     2   ar
     8    10     2    1
     9    10    11    1
    10    11    12    1
    11    12    13    1
    12    13    14    1
    13    14    15    1
    14     2     3   ar
    15     3     4   ar
    16     4     5   ar
    17     5     6   ar
    18     6     7   ar
    19     7     8   ar
    20     8     9   ar
    21    22    23   ar
    22    23    24   ar
    23    24    19   ar
    24     9     1   ar
    25    15    10    1
    26     9     4   ar
    27    12    16    1
@<TRIPOS>MOLECULE
*****
 24 27 0 0 0
SMALL
GASTEIGER

@<TRIPOS>ATOM
      1 N          63.6613   89.2330   12.6381 N.ar    1  UNL1       -0.3100
      2 C          63.6958   90.7102   12.3802 C.ar    1  UNL1        0.1317
      3 N          62.6245   91.0314   11.3807 N.ar    1  UNL1       -0.2300
      4 C          61.9279   89.7526   11.0208 C.ar    1  UNL1        0.0984
      5 C          60.7928   89.4567   10.0859 C.ar    1  UNL1        0.0206
      6 C          60.2986   88.0493    9.9281 C.ar    1  UNL1        0.0016
      7 C          60.9394   86.9378   10.7052 C.ar    1  UNL1        0.0016
      8 C          62.0744   87.2337   11.6401 C.ar    1  UNL1        0.0188
      9 C          62.5687   88.6411   11.7979 C.ar    1  UNL1        0.0789
     10 C          64.6365   91.6936   13.0111 C.3     1  UNL1        0.1199
     11 C          64.7383   91.7819   14.5050 C.3     1  UNL1        0.0871
     12 N          65.6789   92.7653   15.1359 N.3     1  UNL1       -0.2957
     13 C          66.5178   93.6605   14.2729 C.3     1  UNL1        0.0804
     14 C          66.4161   93.5722   12.7790 C.3     1  UNL1        0.0750
     15 S          65.4754   92.5888   12.1481 S.3     1  UNL1       -0.1306
     16 H          66.3230   92.2267   15.7151 H       1  UNL1        0.1233
     17 C          64.5614   88.4797   13.5721 C.3     1  UNL1        0.1339
     18 F          62.4308   86.4363   18.7956 F       1  UNL1       -0.2042
     19 C          62.9634   86.9471   17.4897 C.ar    1  UNL1        0.1401
     20 C          62.9396   88.4175   17.1937 C.ar    1  UNL1        0.0294
     21 C          63.4722   88.9283   15.8878 C.ar    1  UNL1       -0.0001
     22 C          64.0288   87.9689   14.8779 C.ar    1  UNL1        0.0006
     23 C          64.0526   86.4986   15.1740 C.ar    1  UNL1       -0.0001
     24 C          63.5200   85.9877   16.4799 C.ar    1  UNL1        0.0294
@<TRIPOS>BOND
     1    18    19    1
     2    19    20   ar
     3    20    21   ar
     4    21    22   ar
     5    22    17    1
     6    17     1    1
     7     1     2   ar
     8    10     2    1
     9    10    11    1
    10    11    12    1
    11    12    13    1
    12    13    14    1
    13    14    15    1
    14     2     3   ar
    15     3     4   ar
    16     4     5   ar
    17     5     6   ar
    18     6     7   ar
    19     7     8   ar
    20     8     9   ar
    21    22    23   ar
    22    23    24   ar
    23    24    19   ar
    24     9     1   ar
    25    15    10    1
    26     9     4   ar
    27    12    16    1
@<TRIPOS>MOLECULE
*****
 24 27 0 0 0
SMALL
GASTEIGER

@<TRIPOS>ATOM
      1 N          61.4384   87.7096   10.8576 N.ar    1  UNL1       -0.3100
      2 C          62.0794   89.0551   11.0273 C.ar    1  UNL1        0.1317
      3 N          61.6166   89.9340    9.9033 N.ar    1  UNL1       -0.2300
      4 C          60.6896   89.1318    9.0390 C.ar    1  UNL1        0.0984
      5 C          59.9315   89.4755    7.7912 C.ar    1  UNL1        0.0206
      6 C          59.0632   88.4444    7.1332 C.ar    1  UNL1        0.0016
      7 C          58.9531   87.0697    7.7229 C.ar    1  UNL1        0.0016
      8 C          59.7112   86.7259    8.9708 C.ar    1  UNL1        0.0188
      9 C          60.5794   87.7570    9.6288 C.ar    1  UNL1        0.0789
     10 C          63.0184   89.4520   12.1276 C.3     1  UNL1        0.1199
     11 C          63.5015   88.4248   13.1082 C.3     1  UNL1        0.0871
     12 N          64.4405   88.8217   14.2086 N.3     1  UNL1       -0.2957
     13 C          64.8964   90.2457   14.3284 C.3     1  UNL1        0.0804
     14 C          64.4132   91.2728   13.3478 C.3     1  UNL1        0.0750
     15 S          63.4743   90.8759   12.2474 S.3     1  UNL1       -0.1306
     16 H          65.2796   88.2521   14.0994 H       1  UNL1        0.1233
     17 C          61.6238   86.5248   11.7585 C.3     1  UNL1        0.1339
     18 F          64.6635   81.7285    9.8207 F       1  UNL1       -0.2042
     19 C          63.9036   82.9276   10.3051 C.ar    1  UNL1        0.1401
     20 C          63.4766   83.0152   11.7404 C.ar    1  UNL1        0.0294
     21 C          62.7166   84.2143   12.2248 C.ar    1  UNL1       -0.0001
     22 C          62.3837   85.3258   11.2741 C.ar    1  UNL1        0.0006
     23 C          62.8108   85.2380    9.8388 C.ar    1  UNL1       -0.0001
     24 C          63.5707   84.0390    9.3544 C.ar    1  UNL1        0.0294
@<TRIPOS>BOND
     1    18    19    1
     2    19    20   ar
     3    20    21   ar
     4    21    22   ar
     5    22    17    1
     6    17     1    1
     7     1     2   ar
     8    10     2    1
     9    10    11    1
    10    11    12    1
    11    12    13    1
    12    13    14    1
    13    14    15    1
    14     2     3   ar
    15     3     4   ar
    16     4     5   ar
    17     5     6   ar
    18     6     7   ar
    19     7     8   ar
    20     8     9   ar
    21    22    23   ar
    22    23    24   ar
    23    24    19   ar
    24     9     1   ar
    25    15    10    1
    26     9     4   ar
    27    12    16    1
@<TRIPOS>MOLECULE
*****
 24 27 0 0 0
SMALL
GASTEIGER

@<TRIPOS>ATOM
      1 N          63.9331   90.6061   14.3434 N.ar    1  UNL1       -0.3100
      2 C          63.5847   90.5412   12.8859 C.ar    1  UNL1        0.1317
      3 N          64.5021   91.4708   12.1482 N.ar    1  UNL1       -0.2300
      4 C          65.4175   92.1102   13.1498 C.ar    1  UNL1        0.0984
      5 C          66.5258   93.1101   13.0018 C.ar    1  UNL1        0.0206
      6 C          67.2824   93.5755   14.2104 C.ar    1  UNL1        0.0016
      7 C          66.9308   93.0410   15.5671 C.ar    1  UNL1        0.0016
      8 C          65.8225   92.0412   15.7152 C.ar    1  UNL1        0.0188
      9 C          65.0659   91.5758   14.5066 C.ar    1  UNL1        0.0789
     10 C          62.5080   89.6952   12.2736 C.3     1  UNL1        0.1199
     11 C          62.8085   88.2869   11.8536 C.3     1  UNL1        0.0871
     12 N          61.7317   87.4409   11.2413 N.3     1  UNL1       -0.2957
     13 C          60.3545   88.0032   11.0489 C.3     1  UNL1        0.0804
     14 C          60.0540   89.4115   11.4689 C.3     1  UNL1        0.0750
     15 S          61.1308   90.2575   12.0812 S.3     1  UNL1       -0.1306
     16 H          61.6330   86.6161   11.8331 H       1  UNL1        0.1233
     17 C          63.2660   89.8364   15.4446 C.3     1  UNL1        0.1339
     18 F          64.3296   83.9649   16.0720 F       1  UNL1       -0.2042
     19 C          64.0638   85.4327   15.9151 C.ar    1  UNL1        0.1401
     20 C          63.1821   86.1445   16.8981 C.ar    1  UNL1        0.0294
     21 C          62.9162   87.6123   16.7412 C.ar    1  UNL1       -0.0001
     22 C          63.5319   88.3685   15.6014 C.ar    1  UNL1        0.0006
     23 C          64.4135   87.6568   14.6185 C.ar    1  UNL1       -0.0001
     24 C          64.6794   86.1889   14.7754 C.ar    1  UNL1        0.0294
@<TRIPOS>BOND
     1    18    19    1
     2    19    20   ar
     3    20    21   ar
     4    21    22   ar
     5    22    17    1
     6    17     1    1
     7     1     2   ar
     8    10     2    1
     9    10    11    1
    10    11    12    1
    11    12    13    1
    12    13    14    1
    13    14    15    1
    14     2     3   ar
    15     3     4   ar
    16     4     5   ar
    17     5     6   ar
    18     6     7   ar
    19     7     8   ar
    20     8     9   ar
    21    22    23   ar
    22    23    24   ar
    23    24    19   ar
    24     9     1   ar
    25    15    10    1
    26     9     4   ar
    27    12    16    1
@<TRIPOS>MOLECULE
*****
 24 27 0 0 0
SMALL
GASTEIGER

@<TRIPOS>ATOM
      1 N          62.4022   88.1722   11.9411 N.ar    1  UNL1       -0.3100
      2 C          61.8717   87.2833   10.8556 C.ar    1  UNL1        0.1317
      3 N          62.3449   85.8862   11.1279 N.ar    1  UNL1       -0.2300
      4 C          63.1678   85.9116   12.3818 C.ar    1  UNL1        0.0984
      5 C          63.8894   84.8307   13.1308 C.ar    1  UNL1        0.0206
      6 C          64.6465   85.1628   14.3824 C.ar    1  UNL1        0.0016
      7 C          64.6820   86.5756   14.8850 C.ar    1  UNL1        0.0016
      8 C          63.9603   87.6564   14.1360 C.ar    1  UNL1        0.0188
      9 C          63.2033   87.3244   12.8844 C.ar    1  UNL1        0.0789
     10 C          61.0180   87.7157    9.7005 C.3     1  UNL1        0.1199
     11 C          60.9242   89.1686    9.3397 C.3     1  UNL1        0.0871
     12 N          60.0704   89.6009    8.1846 N.3     1  UNL1       -0.2957
     13 C          59.3105   88.5803    7.3904 C.3     1  UNL1        0.0804
     14 C          59.4043   87.1274    7.7512 C.3     1  UNL1        0.0750
     15 S          60.2580   86.6951    8.9062 S.3     1  UNL1       -0.1306
     16 H          60.6842   90.0860    7.5301 H       1  UNL1        0.1233
     17 C          62.1722   89.6495   12.0622 C.3     1  UNL1        0.1339
     18 F          66.8174   93.4392   11.8193 F       1  UNL1       -0.2042
     19 C          65.6561   92.4918   11.8800 C.ar    1  UNL1        0.1401
     20 C          65.3015   91.8221   13.1745 C.ar    1  UNL1        0.0294
     21 C          64.1402   90.8746   13.2352 C.ar    1  UNL1       -0.0001
     22 C          63.3334   90.5969   12.0015 C.ar    1  UNL1        0.0006
     23 C          63.6881   91.2667   10.7070 C.ar    1  UNL1       -0.0001
     24 C          64.8494   92.2141   10.6463 C.ar    1  UNL1        0.0294
@<TRIPOS>BOND
     1    18    19    1
     2    19    20   ar
     3    20    21   ar
     4    21    22   ar
     5    22    17    1
     6    17     1    1
     7     1     2   ar
     8    10     2    1
     9    10    11    1
    10    11    12    1
    11    12    13    1
    12    13    14    1
    13    14    15    1
    14     2     3   ar
    15     3     4   ar
    16     4     5   ar
    17     5     6   ar
    18     6     7   ar
    19     7     8   ar
    20     8     9   ar
    21    22    23   ar
    22    23    24   ar
    23    24    19   ar
    24     9     1   ar
    25    15    10    1
    26     9     4   ar
    27    12    16    1
@<TRIPOS>MOLECULE
*****
 24 27 0 0 0
SMALL
GASTEIGER

@<TRIPOS>ATOM
      1 N          62.9223   85.9103   12.2810 N.ar    1  UNL1       -0.3100
      2 C          63.3576   85.1213   13.4802 C.ar    1  UNL1        0.1317
      3 N          63.9272   86.0797   14.4837 N.ar    1  UNL1       -0.2300
      4 C          63.8438   87.4610   13.9048 C.ar    1  UNL1        0.0984
      5 C          64.2533   88.8005   14.4414 C.ar    1  UNL1        0.0206
      6 C          64.0416   90.0354   13.6167 C.ar    1  UNL1        0.0016
      7 C          63.4206   89.9307   12.2553 C.ar    1  UNL1        0.0016
      8 C          63.0112   88.5912   11.7187 C.ar    1  UNL1        0.0188
      9 C          63.2228   87.3563   12.5434 C.ar    1  UNL1        0.0789
     10 C          63.2434   83.6350   13.6465 C.3     1  UNL1        0.1199
     11 C          62.2891   83.0641   14.6531 C.3     1  UNL1        0.0871
     12 N          62.1749   81.5777   14.8195 N.3     1  UNL1       -0.2957
     13 C          63.0150   80.6622   13.9793 C.3     1  UNL1        0.0804
     14 C          63.9694   81.2331   12.9727 C.3     1  UNL1        0.0750
     15 S          64.0836   82.7195   12.8063 S.3     1  UNL1       -0.1306
     16 H          61.2013   81.3349   14.6362 H       1  UNL1        0.1233
     17 C          62.2963   85.3515   11.0377 C.3     1  UNL1        0.1339
     18 F          58.8579   88.8458    7.5784 F       1  UNL1       -0.2042
     19 C          59.7175   87.9723    8.4432 C.ar    1  UNL1        0.1401
     20 C          60.6256   86.9567    7.8155 C.ar    1  UNL1        0.0294
     21 C          61.4852   86.0831    8.6804 C.ar    1  UNL1       -0.0001
     22 C          61.4368   86.2251   10.1729 C.ar    1  UNL1        0.0006
     23 C          60.5286   87.2407   10.8005 C.ar    1  UNL1       -0.0001
     24 C          59.6690   88.1142    9.9357 C.ar    1  UNL1        0.0294
@<TRIPOS>BOND
     1    18    19    1
     2    19    20   ar
     3    20    21   ar
     4    21    22   ar
     5    22    17    1
     6    17     1    1
     7     1     2   ar
     8    10     2    1
     9    10    11    1
    10    11    12    1
    11    12    13    1
    12    13    14    1
    13    14    15    1
    14     2     3   ar
    15     3     4   ar
    16     4     5   ar
    17     5     6   ar
    18     6     7   ar
    19     7     8   ar
    20     8     9   ar
    21    22    23   ar
    22    23    24   ar
    23    24    19   ar
    24     9     1   ar
    25    15    10    1
    26     9     4   ar
    27    12    16    1
@<TRIPOS>MOLECULE
*****
 24 27 0 0 0
SMALL
GASTEIGER

@<TRIPOS>ATOM
      1 N          64.4043   91.8157   11.6202 N.ar    1  UNL1       -0.3100
      2 C          65.4850   92.8413   11.7943 C.ar    1  UNL1        0.1317
      3 N          65.8695   92.8678   13.2440 N.ar    1  UNL1       -0.2300
      4 C          65.0265   91.8587   13.9657 C.ar    1  UNL1        0.0984
      5 C          64.9664   91.4479   15.4071 C.ar    1  UNL1        0.0206
      6 C          64.0008   90.3868   15.8449 C.ar    1  UNL1        0.0016
      7 C          63.0952   89.7366   14.8413 C.ar    1  UNL1        0.0016
      8 C          63.1553   90.1474   13.3999 C.ar    1  UNL1        0.0188
      9 C          64.1209   91.2084   12.9622 C.ar    1  UNL1        0.0789
     10 C          66.0772   93.6911   10.7094 C.3     1  UNL1        0.1199
     11 C          65.5017   95.0455   10.4192 C.3     1  UNL1        0.0871
     12 N          66.0939   95.8953    9.3343 N.3     1  UNL1       -0.2957
     13 C          67.2616   95.3906    8.5394 C.3     1  UNL1        0.0804
     14 C          67.8371   94.0362    8.8295 C.3     1  UNL1        0.0750
     15 S          67.2449   93.1864    9.9145 S.3     1  UNL1       -0.1306
     16 H          66.3907   96.7674    9.7722 H       1  UNL1        0.1233
     17 C          63.7261   91.4598   10.3304 C.3     1  UNL1        0.1339
     18 F          59.1976   87.5239   10.3084 F       1  UNL1       -0.2042
     19 C          60.3297   88.5079   10.3139 C.ar    1  UNL1        0.1401
     20 C          61.7159   88.0583    9.9584 C.ar    1  UNL1        0.0294
     21 C          62.8480   89.0423    9.9639 C.ar    1  UNL1       -0.0001
     22 C          62.5940   90.4759   10.3249 C.ar    1  UNL1        0.0006
     23 C          61.2078   90.9255   10.6805 C.ar    1  UNL1       -0.0001
     24 C          60.0757   89.9415   10.6750 C.ar    1  UNL1        0.0294
@<TRIPOS>BOND
     1    18    19    1
     2    19    20   ar
     3    20    21   ar
     4    21    22   ar
     5    22    17    1
     6    17     1    1
     7     1     2   ar
     8    10     2    1
     9    10    11    1
    10    11    12    1
    11    12    13    1
    12    13    14    1
    13    14    15    1
    14     2     3   ar
    15     3     4   ar
    16     4     5   ar
    17     5     6   ar
    18     6     7   ar
    19     7     8   ar
    20     8     9   ar
    21    22    23   ar
    22    23    24   ar
    23    24    19   ar
    24     9     1   ar
    25    15    10    1
    26     9     4   ar
    27    12    16    1
@<TRIPOS>MOLECULE
*****
 24 27 0 0 0
SMALL
GASTEIGER

@<TRIPOS>ATOM
      1 N          62.1449   88.1189   11.5340 N.ar    1  UNL1       -0.3100
      2 C          61.7973   88.7551   10.2208 C.ar    1  UNL1        0.1317
      3 N          62.5151   90.0696   10.1382 N.ar    1  UNL1       -0.2300
      4 C          63.3063   90.2459   11.4003 C.ar    1  UNL1        0.0984
      5 C          64.2055   91.3484   11.8755 C.ar    1  UNL1        0.0206
      6 C          64.8758   91.2453   13.2134 C.ar    1  UNL1        0.0016
      7 C          64.6470   90.0397   14.0761 C.ar    1  UNL1        0.0016
      8 C          63.7478   88.9372   13.6009 C.ar    1  UNL1        0.0188
      9 C          63.0775   89.0403   12.2630 C.ar    1  UNL1        0.0789
     10 C          60.8911   88.1780    9.1740 C.3     1  UNL1        0.1199
     11 C          59.9153   89.0627    8.4563 C.3     1  UNL1        0.0871
     12 N          59.0091   88.4856    7.4095 N.3     1  UNL1       -0.2957
     13 C          59.0787   87.0239    7.0804 C.3     1  UNL1        0.0804
     14 C          60.0545   86.1392    7.7980 C.3     1  UNL1        0.0750
     15 S          60.9607   86.7163    8.8448 S.3     1  UNL1       -0.1306
     16 H          59.1989   88.9916    6.5444 H       1  UNL1        0.1233
     17 C          61.6472   86.7940   12.0310 C.3     1  UNL1        0.1339
     18 F          65.3139   82.0453   12.0986 F       1  UNL1       -0.2042
     19 C          64.3972   83.2325   12.0816 C.ar    1  UNL1        0.1401
     20 C          64.3032   84.1246   13.2839 C.ar    1  UNL1        0.0294
     21 C          63.3866   85.3118   13.2670 C.ar    1  UNL1       -0.0001
     22 C          62.5638   85.6069   12.0479 C.ar    1  UNL1        0.0006
     23 C          62.6579   84.7147   10.8457 C.ar    1  UNL1       -0.0001
     24 C          63.5745   83.5276   10.8626 C.ar    1  UNL1        0.0294
@<TRIPOS>BOND
     1    18    19    1
     2    19    20   ar
     3    20    21   ar
     4    21    22   ar
     5    22    17    1
     6    17     1    1
     7     1     2   ar
     8    10     2    1
     9    10    11    1
    10    11    12    1
    11    12    13    1
    12    13    14    1
    13    14    15    1
    14     2     3   ar
    15     3     4   ar
    16     4     5   ar
    17     5     6   ar
    18     6     7   ar
    19     7     8   ar
    20     8     9   ar
    21    22    23   ar
    22    23    24   ar
    23    24    19   ar
    24     9     1   ar
    25    15    10    1
    26     9     4   ar
    27    12    16    1
