@<TRIPOS>MOLECULE
*****
 31 33 0 0 0
SMALL
GASTEIGER

@<TRIPOS>ATOM
      1 C          62.8205   90.2092   13.3091 C.ar    1  UNL1        0.1393
      2 N          61.7765   89.6062   12.4166 N.ar    1  UNL1       -0.2155
      3 C          61.7721   89.9194   10.9497 C.ar    1  UNL1        0.1343
      4 C          62.8116   90.8355   10.3752 C.ar    1  UNL1        0.0310
      5 C          63.8556   91.4386   11.2677 C.ar    1  UNL1       -0.0067
      6 C          64.8951   92.3547   10.6932 C.3     1  UNL1        0.0319
      7 C          63.8600   91.1254   12.7346 C.ar    1  UNL1        0.0959
      8 N          62.8249   89.8960   14.7760 N.pl3   1  UNL1       -0.3145
      9 H          62.1753   90.3312   15.3743 H       1  UNL1        0.1483
     10 C          63.8191   88.9197   15.3315 C.3     1  UNL1        0.1362
     11 C          64.3307   87.8004   14.4738 C.3     1  UNL1        0.2266
     12 O          64.6172   86.4598   15.0825 O.3     1  UNL1       -0.4720
     13 C          62.7863   82.7485   13.3150 C.ar    1  UNL1        0.0592
     14 C          62.8474   84.0118   12.5086 C.ar    1  UNL1        0.0179
     15 C          63.4577   85.2489   13.0978 C.ar    1  UNL1        0.0397
     16 C          64.0069   85.2227   14.4933 C.ar    1  UNL1        0.1577
     17 C          63.9458   83.9594   15.2997 C.ar    1  UNL1        0.1352
     18 N          63.3355   82.7223   14.7105 N.ar    1  UNL1       -0.2450
     19 C          62.3784   80.1839   13.3940 C.3     1  UNL1        0.0067
     20 C          62.1760   81.5114   12.7258 C.3     1  UNL1        0.0458
     21 N          60.7280   89.3163   10.0572 N.pl3   1  UNL1       -0.2837
     22 H          59.8711   89.7808    9.9185 H       1  UNL1        0.1550
     23 C          60.9897   88.0058    9.3761 C.ar    1  UNL1        0.1276
     24 C          62.2524   87.2014    9.4674 C.ar    1  UNL1        0.0503
     25 C          62.0777   85.9679    8.6319 C.ar    1  UNL1        0.0815
     26 C          63.0951   84.8829    8.4380 C.3     1  UNL1        0.0540
     27 N          60.7069   86.0100    8.0242 N.ar    1  UNL1       -0.1760
     28 N          60.0345   87.2695    8.4842 N.ar    1  UNL1       -0.2631
     29 H          59.1258   87.5616    8.2430 H       1  UNL1        0.1903
     30 C          64.9040   91.7283   13.6271 C.1     1  UNL1        0.1029
     31 N          65.9479   92.3313   14.5196 N.1     1  UNL1       -0.1907
@<TRIPOS>BOND
     1    19    20    1
     2    20    13    1
     3    13    14   ar
     4    14    15   ar
     5    15    16   ar
     6    16    12    1
     7    12    11    1
     8    11    10    1
     9    10     8    1
    10     8     1    1
    11     1     2   ar
    12     2     3   ar
    13     3    21    1
    14    21    23    1
    15    23    24   ar
    16    24    25   ar
    17    25    26    1
    18    25    27   ar
    19    27    28   ar
    20     3     4   ar
    21     4     5   ar
    22     5     6    1
    23     5     7   ar
    24     7    30    1
    25    30    31    3
    26    16    17   ar
    27    17    18   ar
    28    18    13   ar
    29     7     1   ar
    30    28    23   ar
    31     8     9    1
    32    21    22    1
    33    28    29    1
@<TRIPOS>MOLECULE
*****
 31 33 0 0 0
SMALL
GASTEIGER

@<TRIPOS>ATOM
      1 C          61.9362   86.5172   10.1006 C.ar    1  UNL1        0.1393
      2 N          62.0032   87.4824   11.2469 N.ar    1  UNL1       -0.2155
      3 C          61.1945   88.7453   11.2122 C.ar    1  UNL1        0.1343
      4 C          60.3189   89.0430   10.0313 C.ar    1  UNL1        0.0310
      5 C          60.2519   88.0778    8.8850 C.ar    1  UNL1       -0.0067
      6 C          59.3763   88.3755    7.7041 C.3     1  UNL1        0.0319
      7 C          61.0606   86.8149    8.9196 C.ar    1  UNL1        0.0959
      8 N          62.7449   85.2544   10.1353 N.pl3   1  UNL1       -0.3145
      9 H          63.4303   85.0897    9.4480 H       1  UNL1        0.1483
     10 C          62.5092   84.2423   11.2171 C.3     1  UNL1        0.1362
     11 C          63.5766   83.2444   11.5560 C.3     1  UNL1        0.2266
     12 O          63.8074   82.8490   12.9844 O.3     1  UNL1       -0.4720
     13 C          63.2185   85.8606   16.2759 C.ar    1  UNL1        0.0592
     14 C          64.4388   85.9289   15.4064 C.ar    1  UNL1        0.0179
     15 C          64.6351   84.9250   14.3092 C.ar    1  UNL1        0.0397
     16 C          63.6111   83.8529   14.0816 C.ar    1  UNL1        0.1577
     17 C          62.3908   83.7846   14.9511 C.ar    1  UNL1        0.1352
     18 N          62.1945   84.7884   16.0482 N.ar    1  UNL1       -0.2450
     19 C          63.0355   88.3310   17.0589 C.3     1  UNL1        0.0067
     20 C          63.0222   86.8644   17.3730 C.3     1  UNL1        0.0458
     21 N          61.2615   89.7105   12.3586 N.pl3   1  UNL1       -0.2837
     22 H          60.4746   89.8461   12.9344 H       1  UNL1        0.1550
     23 C          62.5274   90.4689   12.6274 C.ar    1  UNL1        0.1276
     24 C          63.4422   91.0527   11.5920 C.ar    1  UNL1        0.0503
     25 C          64.5810   91.7213   12.3036 C.ar    1  UNL1        0.0815
     26 C          65.7292   92.4351   11.6539 C.3     1  UNL1        0.0540
     27 N          64.3699   91.5506   13.7788 N.ar    1  UNL1       -0.1760
     28 N          63.1007   90.7766   13.9790 N.ar    1  UNL1       -0.2631
     29 H          62.7122   90.5163   14.8453 H       1  UNL1        0.1903
     30 C          60.9936   85.8498    7.7734 C.1     1  UNL1        0.1029
     31 N          60.9267   84.8846    6.6271 N.1     1  UNL1       -0.1907
@<TRIPOS>BOND
     1    19    20    1
     2    20    13    1
     3    13    14   ar
     4    14    15   ar
     5    15    16   ar
     6    16    12    1
     7    12    11    1
     8    11    10    1
     9    10     8    1
    10     8     1    1
    11     1     2   ar
    12     2     3   ar
    13     3    21    1
    14    21    23    1
    15    23    24   ar
    16    24    25   ar
    17    25    26    1
    18    25    27   ar
    19    27    28   ar
    20     3     4   ar
    21     4     5   ar
    22     5     6    1
    23     5     7   ar
    24     7    30    1
    25    30    31    3
    26    16    17   ar
    27    17    18   ar
    28    18    13   ar
    29     7     1   ar
    30    28    23   ar
    31     8     9    1
    32    21    22    1
    33    28    29    1
@<TRIPOS>MOLECULE
*****
 31 33 0 0 0
SMALL
GASTEIGER

@<TRIPOS>ATOM
      1 C          60.7566   87.1200   10.9227 C.ar    1  UNL1        0.1393
      2 N          61.6197   86.4323   11.9386 N.ar    1  UNL1       -0.2155
      3 C          62.6205   85.4046   11.5001 C.ar    1  UNL1        0.1343
      4 C          62.7582   85.0646   10.0457 C.ar    1  UNL1        0.0310
      5 C          61.8951   85.7523    9.0297 C.ar    1  UNL1       -0.0067
      6 C          62.0328   85.4122    7.5753 C.3     1  UNL1        0.0319
      7 C          60.8943   86.7800    9.4682 C.ar    1  UNL1        0.0959
      8 N          59.7558   88.1477   11.3612 N.pl3   1  UNL1       -0.3145
      9 H          58.8082   87.9005   11.4615 H       1  UNL1        0.1483
     10 C          60.1990   89.5520   11.6468 C.3     1  UNL1        0.1362
     11 C          61.6611   89.8707   11.7501 C.3     1  UNL1        0.2266
     12 O          62.3809   89.6768   13.0517 O.3     1  UNL1       -0.4720
     13 C          65.7636   92.4205   14.1828 C.ar    1  UNL1        0.0592
     14 C          65.3786   92.2590   12.7421 C.ar    1  UNL1        0.0179
     15 C          64.2510   91.3445   12.3651 C.ar    1  UNL1        0.0397
     16 C          63.5085   90.5913   13.4287 C.ar    1  UNL1        0.1577
     17 C          63.8935   90.7528   14.8694 C.ar    1  UNL1        0.1352
     18 N          65.0210   91.6674   15.2465 N.ar    1  UNL1       -0.2450
     19 C          67.5921   93.1591   15.8742 C.3     1  UNL1        0.0067
     20 C          66.8911   93.3351   14.5599 C.3     1  UNL1        0.0458
     21 N          63.4836   84.7170   12.5162 N.pl3   1  UNL1       -0.2837
     22 H          64.3398   85.1197   12.7882 H       1  UNL1        0.1550
     23 C          63.0422   83.4157   13.1177 C.ar    1  UNL1        0.1276
     24 C          62.9660   82.0969   12.4072 C.ar    1  UNL1        0.0503
     25 C          62.4762   81.0709   13.3857 C.ar    1  UNL1        0.0815
     26 C          62.2522   79.6156   13.0992 C.3     1  UNL1        0.0540
     27 N          62.2498   81.7556   14.7010 N.ar    1  UNL1       -0.1760
     28 N          62.5996   83.2048   14.5353 N.ar    1  UNL1       -0.2631
     29 H          62.5478   83.8962   15.2343 H       1  UNL1        0.1903
     30 C          60.0312   87.4676    8.4522 C.1     1  UNL1        0.1029
     31 N          59.1681   88.1553    7.4363 N.1     1  UNL1       -0.1907
@<TRIPOS>BOND
     1    19    20    1
     2    20    13    1
     3    13    14   ar
     4    14    15   ar
     5    15    16   ar
     6    16    12    1
     7    12    11    1
     8    11    10    1
     9    10     8    1
    10     8     1    1
    11     1     2   ar
    12     2     3   ar
    13     3    21    1
    14    21    23    1
    15    23    24   ar
    16    24    25   ar
    17    25    26    1
    18    25    27   ar
    19    27    28   ar
    20     3     4   ar
    21     4     5   ar
    22     5     6    1
    23     5     7   ar
    24     7    30    1
    25    30    31    3
    26    16    17   ar
    27    17    18   ar
    28    18    13   ar
    29     7     1   ar
    30    28    23   ar
    31     8     9    1
    32    21    22    1
    33    28    29    1
@<TRIPOS>MOLECULE
*****
 31 33 0 0 0
SMALL
GASTEIGER

@<TRIPOS>ATOM
      1 C          63.4431   90.5843   13.4482 C.ar    1  UNL1        0.1393
      2 N          64.5816   91.5507   13.5886 N.ar    1  UNL1       -0.2155
      3 C          65.0865   92.2944   12.3878 C.ar    1  UNL1        0.1343
      4 C          64.4530   92.0717   11.0466 C.ar    1  UNL1        0.0310
      5 C          63.3144   91.1052   10.9061 C.ar    1  UNL1       -0.0067
      6 C          62.6808   90.8824    9.5649 C.3     1  UNL1        0.0319
      7 C          62.8095   90.3615   12.1070 C.ar    1  UNL1        0.0959
      8 N          62.9382   89.8406   14.6491 N.pl3   1  UNL1       -0.3145
      9 H          62.0048   89.9533   14.9413 H       1  UNL1        0.1483
     10 C          63.8554   88.9253   15.4047 C.3     1  UNL1        0.1362
     11 C          64.2276   87.5921   14.8268 C.3     1  UNL1        0.2266
     12 O          63.8521   86.3312   15.5472 O.3     1  UNL1       -0.4720
     13 C          62.9929   82.5789   13.2166 C.ar    1  UNL1        0.0592
     14 C          63.1752   83.8828   12.4981 C.ar    1  UNL1        0.0179
     15 C          63.4617   85.1336   13.2749 C.ar    1  UNL1        0.0397
     16 C          63.5657   85.0804   14.7703 C.ar    1  UNL1        0.1577
     17 C          63.3833   83.7764   15.4889 C.ar    1  UNL1        0.1352
     18 N          63.0969   82.5257   14.7120 N.ar    1  UNL1       -0.2450
     19 C          62.3453   80.0634   13.1609 C.3     1  UNL1        0.0067
     20 C          62.7064   81.3281   12.4397 C.3     1  UNL1        0.0458
     21 N          66.2251   93.2609   12.5282 N.pl3   1  UNL1       -0.2837
     22 H          66.5817   93.4752   13.4205 H       1  UNL1        0.1550
     23 C          66.8203   93.9009   11.3092 C.ar    1  UNL1        0.1276
     24 C          66.4596   95.2473   10.7551 C.ar    1  UNL1        0.0503
     25 C          67.2971   95.4854    9.5337 C.ar    1  UNL1        0.0815
     26 C          67.2624   96.7081    8.6654 C.3     1  UNL1        0.0540
     27 N          68.1755   94.2861    9.3329 N.ar    1  UNL1       -0.1760
     28 N          67.8808   93.3068   10.4302 N.ar    1  UNL1       -0.2631
     29 H          68.3083   92.4284   10.5521 H       1  UNL1        0.1903
     30 C          61.6710   89.3950   11.9666 C.1     1  UNL1        0.1029
     31 N          60.5325   88.4286   11.8262 N.1     1  UNL1       -0.1907
@<TRIPOS>BOND
     1    19    20    1
     2    20    13    1
     3    13    14   ar
     4    14    15   ar
     5    15    16   ar
     6    16    12    1
     7    12    11    1
     8    11    10    1
     9    10     8    1
    10     8     1    1
    11     1     2   ar
    12     2     3   ar
    13     3    21    1
    14    21    23    1
    15    23    24   ar
    16    24    25   ar
    17    25    26    1
    18    25    27   ar
    19    27    28   ar
    20     3     4   ar
    21     4     5   ar
    22     5     6    1
    23     5     7   ar
    24     7    30    1
    25    30    31    3
    26    16    17   ar
    27    17    18   ar
    28    18    13   ar
    29     7     1   ar
    30    28    23   ar
    31     8     9    1
    32    21    22    1
    33    28    29    1
@<TRIPOS>MOLECULE
*****
 31 33 0 0 0
SMALL
GASTEIGER

@<TRIPOS>ATOM
      1 C          63.8545   91.2786   12.1798 C.ar    1  UNL1        0.1393
      2 N          63.3060   90.4822   13.3265 N.ar    1  UNL1       -0.2155
      3 C          64.0155   90.4836   14.6481 C.ar    1  UNL1        0.1343
      4 C          65.2736   91.2814   14.8230 C.ar    1  UNL1        0.0310
      5 C          65.8222   92.0779   13.6763 C.ar    1  UNL1       -0.0067
      6 C          67.0803   92.8757   13.8512 C.3     1  UNL1        0.0319
      7 C          65.1127   92.0764   12.3547 C.ar    1  UNL1        0.0959
      8 N          63.1450   91.2771   10.8583 N.pl3   1  UNL1       -0.3145
      9 H          62.9385   92.1287   10.4095 H       1  UNL1        0.1483
     10 C          62.7500   89.9781   10.2205 C.3     1  UNL1        0.1362
     11 C          61.3168   89.7267    9.8562 C.3     1  UNL1        0.2266
     12 O          60.9093   88.4002    9.2869 O.3     1  UNL1       -0.4720
     13 C          62.7661   84.6127   10.8546 C.ar    1  UNL1        0.0592
     14 C          62.9868   85.0218    9.4284 C.ar    1  UNL1        0.0179
     15 C          62.3679   86.2842    8.9059 C.ar    1  UNL1        0.0397
     16 C          61.5282   87.1377    9.8094 C.ar    1  UNL1        0.1577
     17 C          61.3075   86.7287   11.2356 C.ar    1  UNL1        0.1352
     18 N          61.9264   85.4662   11.7581 N.ar    1  UNL1       -0.2450
     19 C          63.9419   82.3368   10.4218 C.3     1  UNL1        0.0067
     20 C          63.3850   83.3503   11.3771 C.3     1  UNL1        0.0458
     21 N          63.4669   89.6872   15.7947 N.pl3   1  UNL1       -0.2837
     22 H          63.0305   90.1460   16.5486 H       1  UNL1        0.1550
     23 C          63.5831   88.1918   15.7928 C.ar    1  UNL1        0.1276
     24 C          64.3939   87.3717   14.8336 C.ar    1  UNL1        0.0503
     25 C          64.2209   85.9269   15.1977 C.ar    1  UNL1        0.0815
     26 C          64.8544   84.7599   14.5000 C.3     1  UNL1        0.0540
     27 N          63.3032   85.8540   16.3820 N.ar    1  UNL1       -0.1760
     28 N          62.9090   87.2538   16.7498 N.ar    1  UNL1       -0.2631
     29 H          62.3126   87.5116   17.4894 H       1  UNL1        0.1903
     30 C          65.6612   92.8728   11.2081 C.1     1  UNL1        0.1029
     31 N          66.2098   93.6691   10.0614 N.1     1  UNL1       -0.1907
@<TRIPOS>BOND
     1    19    20    1
     2    20    13    1
     3    13    14   ar
     4    14    15   ar
     5    15    16   ar
     6    16    12    1
     7    12    11    1
     8    11    10    1
     9    10     8    1
    10     8     1    1
    11     1     2   ar
    12     2     3   ar
    13     3    21    1
    14    21    23    1
    15    23    24   ar
    16    24    25   ar
    17    25    26    1
    18    25    27   ar
    19    27    28   ar
    20     3     4   ar
    21     4     5   ar
    22     5     6    1
    23     5     7   ar
    24     7    30    1
    25    30    31    3
    26    16    17   ar
    27    17    18   ar
    28    18    13   ar
    29     7     1   ar
    30    28    23   ar
    31     8     9    1
    32    21    22    1
    33    28    29    1
@<TRIPOS>MOLECULE
*****
 31 33 0 0 0
SMALL
GASTEIGER

@<TRIPOS>ATOM
      1 C          62.6885   84.4053   13.3154 C.ar    1  UNL1        0.1393
      2 N          62.3580   85.6163   12.4943 N.ar    1  UNL1       -0.2155
      3 C          62.4962   85.5708   11.0014 C.ar    1  UNL1        0.1343
      4 C          62.9650   84.3143   10.3296 C.ar    1  UNL1        0.0310
      5 C          63.2955   83.1032   11.1507 C.ar    1  UNL1       -0.0067
      6 C          63.7643   81.8467   10.4789 C.3     1  UNL1        0.0319
      7 C          63.1573   83.1487   12.6436 C.ar    1  UNL1        0.0959
      8 N          62.5502   84.4509   14.8083 N.pl3   1  UNL1       -0.3145
      9 H          61.7267   84.1229   15.2367 H       1  UNL1        0.1483
     10 C          63.6668   84.9962   15.6486 C.3     1  UNL1        0.1362
     11 C          63.3583   85.8409   16.8492 C.3     1  UNL1        0.2266
     12 O          62.6307   87.1421   16.6838 O.3     1  UNL1       -0.4720
     13 C          64.6978   90.6475   14.7631 C.ar    1  UNL1        0.0592
     14 C          63.8828   90.8466   16.0065 C.ar    1  UNL1        0.0179
     15 C          63.1938   89.6781   16.6468 C.ar    1  UNL1        0.0397
     16 C          63.3197   88.3106   16.0436 C.ar    1  UNL1        0.1577
     17 C          64.1347   88.1115   14.8002 C.ar    1  UNL1        0.1352
     18 N          64.8237   89.2800   14.1600 N.ar    1  UNL1       -0.2450
     19 C          66.1998   92.7582   14.9603 C.3     1  UNL1        0.0067
     20 C          65.3868   91.8160   14.1229 C.3     1  UNL1        0.0458
     21 N          62.1657   86.7818   10.1803 N.pl3   1  UNL1       -0.2837
     22 H          62.2808   86.7602    9.2028 H       1  UNL1        0.1550
     23 C          61.6597   88.0258   10.8485 C.ar    1  UNL1        0.1276
     24 C          60.3482   88.7012   10.5771 C.ar    1  UNL1        0.0503
     25 C          60.2544   89.9056   11.4663 C.ar    1  UNL1        0.0815
     26 C          59.1082   90.8715   11.5244 C.3     1  UNL1        0.0540
     27 N          61.5079   89.9745   12.2873 N.ar    1  UNL1       -0.1760
     28 N          62.3764   88.8127   11.9055 N.ar    1  UNL1       -0.2631
     29 H          63.2615   88.6033   12.2824 H       1  UNL1        0.1903
     30 C          63.4878   81.9378   13.4647 C.1     1  UNL1        0.1029
     31 N          63.8183   80.7268   14.2858 N.1     1  UNL1       -0.1907
@<TRIPOS>BOND
     1    19    20    1
     2    20    13    1
     3    13    14   ar
     4    14    15   ar
     5    15    16   ar
     6    16    12    1
     7    12    11    1
     8    11    10    1
     9    10     8    1
    10     8     1    1
    11     1     2   ar
    12     2     3   ar
    13     3    21    1
    14    21    23    1
    15    23    24   ar
    16    24    25   ar
    17    25    26    1
    18    25    27   ar
    19    27    28   ar
    20     3     4   ar
    21     4     5   ar
    22     5     6    1
    23     5     7   ar
    24     7    30    1
    25    30    31    3
    26    16    17   ar
    27    17    18   ar
    28    18    13   ar
    29     7     1   ar
    30    28    23   ar
    31     8     9    1
    32    21    22    1
    33    28    29    1
@<TRIPOS>MOLECULE
*****
 31 33 0 0 0
SMALL
GASTEIGER

@<TRIPOS>ATOM
      1 C          63.0364   90.4932   13.1483 C.ar    1  UNL1        0.1393
      2 N          64.2059   91.4317   13.1101 N.ar    1  UNL1       -0.2155
      3 C          64.6380   92.0390   11.8083 C.ar    1  UNL1        0.1343
      4 C          63.9006   91.7078   10.5448 C.ar    1  UNL1        0.0310
      5 C          62.7310   90.7692   10.5830 C.ar    1  UNL1       -0.0067
      6 C          61.9937   90.4380    9.3195 C.3     1  UNL1        0.0319
      7 C          62.2990   90.1619   11.8847 C.ar    1  UNL1        0.0959
      8 N          62.6043   89.8859   14.4500 N.pl3   1  UNL1       -0.3145
      9 H          61.6826   90.0142   14.7712 H       1  UNL1        0.1483
     10 C          63.5767   89.0831   15.2625 C.3     1  UNL1        0.1362
     11 C          64.2709   87.9028   14.6500 C.3     1  UNL1        0.2266
     12 O          64.3262   86.5987   15.3890 O.3     1  UNL1       -0.4720
     13 C          63.2132   82.7757   13.2923 C.ar    1  UNL1        0.0592
     14 C          63.0897   84.0875   12.5756 C.ar    1  UNL1        0.0179
     15 C          63.4607   85.3618   13.2745 C.ar    1  UNL1        0.0397
     16 C          63.9552   85.3243   14.6901 C.ar    1  UNL1        0.1577
     17 C          64.0786   84.0125   15.4068 C.ar    1  UNL1        0.1352
     18 N          63.7076   82.7382   14.7080 N.ar    1  UNL1       -0.2450
     19 C          62.1029   80.4272   13.3348 C.3     1  UNL1        0.0067
     20 C          62.8422   81.5013   12.5935 C.3     1  UNL1        0.0458
     21 N          65.8075   92.9775   11.7701 N.pl3   1  UNL1       -0.2837
     22 H          65.8714   93.6557   11.0593 H       1  UNL1        0.1550
     23 C          66.8795   92.8829   12.8150 C.ar    1  UNL1        0.1276
     24 C          66.8659   93.5556   14.1556 C.ar    1  UNL1        0.0503
     25 C          68.1313   93.1874   14.8719 C.ar    1  UNL1        0.0815
     26 C          68.5309   93.6401   16.2450 C.3     1  UNL1        0.0540
     27 N          68.9271   92.2871   13.9739 N.ar    1  UNL1       -0.1760
     28 N          68.1534   92.0989   12.7027 N.ar    1  UNL1       -0.2631
     29 H          68.4326   91.5561   11.9303 H       1  UNL1        0.1903
     30 C          61.1295   89.2234   11.9229 C.1     1  UNL1        0.1029
     31 N          59.9600   88.2849   11.9612 N.1     1  UNL1       -0.1907
@<TRIPOS>BOND
     1    19    20    1
     2    20    13    1
     3    13    14   ar
     4    14    15   ar
     5    15    16   ar
     6    16    12    1
     7    12    11    1
     8    11    10    1
     9    10     8    1
    10     8     1    1
    11     1     2   ar
    12     2     3   ar
    13     3    21    1
    14    21    23    1
    15    23    24   ar
    16    24    25   ar
    17    25    26    1
    18    25    27   ar
    19    27    28   ar
    20     3     4   ar
    21     4     5   ar
    22     5     6    1
    23     5     7   ar
    24     7    30    1
    25    30    31    3
    26    16    17   ar
    27    17    18   ar
    28    18    13   ar
    29     7     1   ar
    30    28    23   ar
    31     8     9    1
    32    21    22    1
    33    28    29    1
@<TRIPOS>MOLECULE
*****
 31 33 0 0 0
SMALL
GASTEIGER

@<TRIPOS>ATOM
      1 C          63.8795   87.3285   14.6677 C.ar    1  UNL1        0.1393
      2 N          64.0120   85.8822   14.2929 N.ar    1  UNL1       -0.2155
      3 C          63.6734   84.8147   15.2908 C.ar    1  UNL1        0.1343
      4 C          63.2025   85.1935   16.6636 C.ar    1  UNL1        0.0310
      5 C          63.0700   86.6399   17.0385 C.ar    1  UNL1       -0.0067
      6 C          62.5990   87.0187   18.4113 C.3     1  UNL1        0.0319
      7 C          63.4085   87.7074   16.0406 C.ar    1  UNL1        0.0959
      8 N          64.2180   88.3960   13.6698 N.pl3   1  UNL1       -0.3145
      9 H          65.0880   88.8545   13.7155 H       1  UNL1        0.1483
     10 C          63.2309   88.7648   12.6022 C.3     1  UNL1        0.1362
     11 C          62.8990   90.2063   12.3533 C.3     1  UNL1        0.2266
     12 O          63.9368   91.1273   11.7836 O.3     1  UNL1       -0.4720
     13 C          66.9398   93.0888   14.5011 C.ar    1  UNL1        0.0592
     14 C          66.0463   92.0055   15.0284 C.ar    1  UNL1        0.0179
     15 C          65.0454   91.3516   14.1225 C.ar    1  UNL1        0.0397
     16 C          64.9378   91.7811   12.6894 C.ar    1  UNL1        0.1577
     17 C          65.8313   92.8645   12.1621 C.ar    1  UNL1        0.1352
     18 N          66.8322   93.5183   13.0679 N.ar    1  UNL1       -0.2450
     19 C          69.0392   92.9280   16.0231 C.3     1  UNL1        0.0067
     20 C          67.9408   93.7427   15.4069 C.3     1  UNL1        0.0458
     21 N          63.8060   83.3683   14.9159 N.pl3   1  UNL1       -0.2837
     22 H          63.8068   82.6763   15.6162 H       1  UNL1        0.1550
     23 C          63.9371   82.9762   13.4740 C.ar    1  UNL1        0.1276
     24 C          63.1446   81.9124   12.7740 C.ar    1  UNL1        0.0503
     25 C          63.6015   81.8578   11.3463 C.ar    1  UNL1        0.0815
     26 C          63.0758   80.9351   10.2869 C.3     1  UNL1        0.0540
     27 N          64.6765   82.8880   11.1639 N.ar    1  UNL1       -0.1760
     28 N          64.8839   83.5792   12.4789 N.ar    1  UNL1       -0.2631
     29 H          65.5282   84.3018   12.6576 H       1  UNL1        0.1903
     30 C          63.2760   89.1537   16.4155 C.1     1  UNL1        0.1029
     31 N          63.1435   90.6000   16.7904 N.1     1  UNL1       -0.1907
@<TRIPOS>BOND
     1    19    20    1
     2    20    13    1
     3    13    14   ar
     4    14    15   ar
     5    15    16   ar
     6    16    12    1
     7    12    11    1
     8    11    10    1
     9    10     8    1
    10     8     1    1
    11     1     2   ar
    12     2     3   ar
    13     3    21    1
    14    21    23    1
    15    23    24   ar
    16    24    25   ar
    17    25    26    1
    18    25    27   ar
    19    27    28   ar
    20     3     4   ar
    21     4     5   ar
    22     5     6    1
    23     5     7   ar
    24     7    30    1
    25    30    31    3
    26    16    17   ar
    27    17    18   ar
    28    18    13   ar
    29     7     1   ar
    30    28    23   ar
    31     8     9    1
    32    21    22    1
    33    28    29    1
@<TRIPOS>MOLECULE
*****
 31 33 0 0 0
SMALL
GASTEIGER

@<TRIPOS>ATOM
      1 C          63.6118   85.9010   13.7390 C.ar    1  UNL1        0.1393
      2 N          63.0781   86.7609   12.6319 N.ar    1  UNL1       -0.2155
      3 C          62.4756   86.1265   11.4135 C.ar    1  UNL1        0.1343
      4 C          62.4067   84.6323   11.3022 C.ar    1  UNL1        0.0310
      5 C          62.9404   83.7723   12.4093 C.ar    1  UNL1       -0.0067
      6 C          62.8715   82.2781   12.2981 C.3     1  UNL1        0.0319
      7 C          63.5429   84.4067   13.6277 C.ar    1  UNL1        0.0959
      8 N          64.2144   86.5354   14.9574 N.pl3   1  UNL1       -0.3145
      9 H          65.1353   86.8821   14.9275 H       1  UNL1        0.1483
     10 C          63.4137   86.6416   16.2214 C.3     1  UNL1        0.1362
     11 C          63.0680   87.9905   16.7791 C.3     1  UNL1        0.2266
     12 O          62.7622   89.1294   15.8522 O.3     1  UNL1       -0.4720
     13 C          65.8845   92.2649   15.0336 C.ar    1  UNL1        0.0592
     14 C          65.7545   91.0801   14.1229 C.ar    1  UNL1        0.0179
     15 C          64.7138   90.0350   14.3958 C.ar    1  UNL1        0.0397
     16 C          63.8030   90.1746   15.5793 C.ar    1  UNL1        0.1577
     17 C          63.9329   91.3593   16.4900 C.ar    1  UNL1        0.1352
     18 N          64.9737   92.4045   16.2172 N.ar    1  UNL1       -0.2450
     19 C          68.0336   93.5396   15.7449 C.3     1  UNL1        0.0067
     20 C          66.9253   93.3100   14.7607 C.3     1  UNL1        0.0458
     21 N          61.9419   86.9865   10.3063 N.pl3   1  UNL1       -0.2837
     22 H          61.9092   87.9645   10.4147 H       1  UNL1        0.1550
     23 C          61.4580   86.3564    9.0340 C.ar    1  UNL1        0.1276
     24 C          62.2932   85.5736    8.0647 C.ar    1  UNL1        0.0503
     25 C          61.4054   85.1319    6.9392 C.ar    1  UNL1        0.0815
     26 C          61.8273   84.3224    5.7489 C.3     1  UNL1        0.0540
     27 N          60.0215   85.6418    7.2130 N.ar    1  UNL1       -0.1760
     28 N          60.0540   86.3986    8.5076 N.ar    1  UNL1       -0.2631
     29 H          59.2884   86.8446    8.9366 H       1  UNL1        0.1903
     30 C          64.0766   83.5468   14.7349 C.1     1  UNL1        0.1029
     31 N          64.6103   82.6869   15.8420 N.1     1  UNL1       -0.1907
@<TRIPOS>BOND
     1    19    20    1
     2    20    13    1
     3    13    14   ar
     4    14    15   ar
     5    15    16   ar
     6    16    12    1
     7    12    11    1
     8    11    10    1
     9    10     8    1
    10     8     1    1
    11     1     2   ar
    12     2     3   ar
    13     3    21    1
    14    21    23    1
    15    23    24   ar
    16    24    25   ar
    17    25    26    1
    18    25    27   ar
    19    27    28   ar
    20     3     4   ar
    21     4     5   ar
    22     5     6    1
    23     5     7   ar
    24     7    30    1
    25    30    31    3
    26    16    17   ar
    27    17    18   ar
    28    18    13   ar
    29     7     1   ar
    30    28    23   ar
    31     8     9    1
    32    21    22    1
    33    28    29    1
