@<TRIPOS>MOLECULE
*****
 47 53 0 0 0
SMALL
GASTEIGER

@<TRIPOS>ATOM
      1 C          59.4710   88.6216    7.5783 C.3     1  UNL1        0.1543
      2 O          64.0496   91.1995   16.6690 O.2     1  UNL1       -0.2525
      3 C          64.2005   91.3625   15.1855 C.2     1  UNL1        0.3046
      4 N          65.3575   92.1389   14.6301 N.am    1  UNL1       -0.2685
      5 C          65.5083   92.3019   13.1467 C.ar    1  UNL1        0.0490
      6 C          66.6654   93.0783   12.5913 C.ar    1  UNL1        0.0144
      7 C          66.8162   93.2413   11.1078 C.ar    1  UNL1        0.0013
      8 C          65.8100   92.6279   10.1798 C.ar    1  UNL1       -0.0002
      9 C          64.6529   91.8516   10.7351 C.ar    1  UNL1       -0.0015
     10 C          64.5021   91.6885   12.2186 C.ar    1  UNL1        0.0074
     11 C          63.3451   90.9121   12.7740 C.3     1  UNL1        0.0816
     12 C          63.4959   91.0751   11.2906 C.3     1  UNL1        0.0439
     13 C          62.4897   90.4618   10.3625 C.3     1  UNL1        0.0969
     14 N          61.3326   89.6854   10.9179 N.am    1  UNL1       -0.2641
     15 C          60.3264   89.0720    9.9898 C.2     1  UNL1        0.3043
     16 O          59.1694   88.2956   10.5452 O.2     1  UNL1       -0.2526
     17 N          60.4772   89.2350    8.5064 N.am    1  UNL1       -0.2822
     18 C          61.1818   89.5224   12.4013 C.3     1  UNL1        0.0969
     19 C          62.1881   90.1358   13.3294 C.3     1  UNL1        0.0439
     20 N          63.1943   90.7491   14.2575 N.am    1  UNL1       -0.2882
     21 H          66.0179   92.5415   15.2393 H       1  UNL1        0.1564
     22 H          61.2366   89.7446    8.1419 H       1  UNL1        0.1514
     23 H          62.4349   90.2396   14.6220 H       1  UNL1        0.1512
     24 C          58.6174   89.4993    6.7116 C.2     1  UNL1        0.2439
     25 O          57.1252   89.4788    6.8626 O.2     1  UNL1       -0.2731
     26 N          59.2561   90.3972    5.6939 N.am    1  UNL1       -0.2781
     27 C          60.7483   90.4176    5.5429 C.3     1  UNL1        0.0948
     28 C          61.3870   91.3157    4.5251 C.3     1  UNL1        0.0375
     29 C          60.5334   92.1932    3.6584 C.3     1  UNL1        0.0609
     30 C          59.0411   92.1728    3.8094 C.3     1  UNL1        0.0375
     31 C          58.4025   91.2748    4.8271 C.3     1  UNL1        0.0948
     32 N          61.1720   93.0912    2.6407 N.3     1  UNL1       -0.2738
     33 C          60.4060   94.2519    2.0788 C.3     1  UNL1        0.0720
     34 C          61.0447   95.1499    1.0610 C.3     1  UNL1        0.0174
     35 C          62.4494   94.8871    0.6053 C.3     1  UNL1        0.0029
     36 C          63.2154   93.7264    1.1673 C.3     1  UNL1        0.0174
     37 C          62.5768   92.8284    2.1850 C.3     1  UNL1        0.0720
     38 C          59.3184   87.1307    7.5170 C.3     1  UNL1        0.0559
     39 C          60.5316   86.2499    7.5663 C.ar    1  UNL1       -0.0131
     40 C          61.2171   85.6266    6.3866 C.ar    1  UNL1        0.0312
     41 S          62.3814   84.8292    6.8951 S.2     1  UNL1       -0.0868
     42 C          62.4155   84.9598    8.3890 C.ar    1  UNL1        0.0292
     43 C          63.3399   84.3926    9.4253 C.ar    1  UNL1        0.0065
     44 C          63.1210   84.7034   10.8763 C.ar    1  UNL1        0.0005
     45 C          61.9778   85.5814   11.2910 C.ar    1  UNL1        0.0000
     46 C          61.0534   86.1486   10.2548 C.ar    1  UNL1        0.0002
     47 C          61.2723   85.8378    8.8038 C.ar    1  UNL1        0.0026
@<TRIPOS>BOND
     1     2     3    2
     2     3     4   am
     3     4     5    1
     4     5     6   ar
     5     6     7   ar
     6     7     8   ar
     7     8     9   ar
     8     9    10   ar
     9    10    11    1
    10    11    12    1
    11    12    13    1
    12    13    14    1
    13    14    15   am
    14    15    16    2
    15    15    17   am
    16    17     1    1
    17     1    38    1
    18    38    39    1
    19    39    40   ar
    20    40    41   ar
    21    41    42   ar
    22    42    43   ar
    23    43    44   ar
    24    44    45   ar
    25    45    46   ar
    26    46    47   ar
    27     1    24    1
    28    24    25    2
    29    24    26   am
    30    26    27    1
    31    27    28    1
    32    28    29    1
    33    29    32    1
    34    32    33    1
    35    33    34    1
    36    34    35    1
    37    35    36    1
    38    36    37    1
    39    29    30    1
    40    30    31    1
    41    14    18    1
    42    18    19    1
    43    11    20    1
    44    20     3   am
    45    10     5   ar
    46    19    11    1
    47    47    39   ar
    48    31    26    1
    49    47    42   ar
    50    37    32    1
    51     4    21    1
    52    17    22    1
    53    20    23    1
@<TRIPOS>MOLECULE
*****
 47 53 0 0 0
SMALL
GASTEIGER

@<TRIPOS>ATOM
      1 C          64.5449   89.7843   14.6547 C.3     1  UNL1        0.1543
      2 O          57.6530   88.6790    6.8106 O.2     1  UNL1       -0.2525
      3 C          58.8838   88.0517    7.3952 C.2     1  UNL1        0.3046
      4 N          59.4746   86.8271    6.7618 N.am    1  UNL1       -0.2685
      5 C          60.7053   86.1999    7.3465 C.ar    1  UNL1        0.0490
      6 C          61.2962   84.9752    6.7131 C.ar    1  UNL1        0.0144
      7 C          62.5270   84.3480    7.2977 C.ar    1  UNL1        0.0013
      8 C          63.1669   84.9454    8.5158 C.ar    1  UNL1       -0.0002
      9 C          62.5761   86.1700    9.1492 C.ar    1  UNL1       -0.0015
     10 C          61.3453   86.7973    8.5645 C.ar    1  UNL1        0.0074
     11 C          60.7545   88.0219    9.1979 C.3     1  UNL1        0.0816
     12 C          61.9852   87.3947    9.7826 C.3     1  UNL1        0.0439
     13 C          62.6251   87.9921   11.0006 C.3     1  UNL1        0.0969
     14 N          62.0343   89.2167   11.6340 N.am    1  UNL1       -0.2641
     15 C          62.6742   89.8141   12.8520 C.2     1  UNL1        0.3043
     16 O          62.0834   91.0387   13.4854 O.2     1  UNL1       -0.2526
     17 N          63.9049   89.1869   13.4367 N.am    1  UNL1       -0.2822
     18 C          60.8036   89.8439   11.0494 C.3     1  UNL1        0.0969
     19 C          60.1636   89.2465    9.8313 C.3     1  UNL1        0.0439
     20 N          59.5237   88.6491    8.6133 N.am    1  UNL1       -0.2882
     21 H          59.0546   86.4350    5.9624 H       1  UNL1        0.1564
     22 H          64.2927   88.3831   13.0210 H       1  UNL1        0.1514
     23 H          59.1359   89.4529    9.0290 H       1  UNL1        0.1512
     24 C          65.7831   90.6200   14.5180 C.2     1  UNL1        0.2439
     25 O          66.9124   90.4521   15.4908 O.2     1  UNL1       -0.2731
     26 N          65.8919   91.6234   13.4084 N.am    1  UNL1       -0.2781
     27 C          64.7625   91.7913   12.4356 C.3     1  UNL1        0.0948
     28 C          64.8714   92.7948   11.3259 C.3     1  UNL1        0.0375
     29 C          66.1096   93.6304   11.1892 C.3     1  UNL1        0.0609
     30 C          67.2389   93.4626   12.1621 C.3     1  UNL1        0.0375
     31 C          67.1301   92.4591   13.2717 C.3     1  UNL1        0.0948
     32 N          66.2184   94.6339   10.0797 N.3     1  UNL1       -0.2738
     33 C          67.2020   94.4189    8.9678 C.3     1  UNL1        0.0720
     34 C          67.3108   95.4224    7.8582 C.3     1  UNL1        0.0174
     35 C          66.4360   96.6409    7.8605 C.3     1  UNL1        0.0029
     36 C          65.4524   96.8559    8.9724 C.3     1  UNL1        0.0174
     37 C          65.3436   95.8524   10.0820 C.3     1  UNL1        0.0720
     38 C          63.9467   89.5461   16.0095 C.3     1  UNL1        0.0559
     39 C          63.5062   88.1673   16.4029 C.ar    1  UNL1       -0.0131
     40 C          62.5879   87.8255   17.5387 C.ar    1  UNL1        0.0312
     41 S          62.4209   86.3351   17.5674 S.2     1  UNL1       -0.0868
     42 C          63.2360   85.7557   16.4495 C.ar    1  UNL1        0.0292
     43 C          63.4541   84.3433   15.9938 C.ar    1  UNL1        0.0065
     44 C          64.3430   84.0633   14.8185 C.ar    1  UNL1        0.0005
     45 C          65.0138   85.1956   14.0988 C.ar    1  UNL1        0.0000
     46 C          64.7957   86.6080   14.5545 C.ar    1  UNL1        0.0002
     47 C          63.9068   86.8880   15.7298 C.ar    1  UNL1        0.0026
@<TRIPOS>BOND
     1     2     3    2
     2     3     4   am
     3     4     5    1
     4     5     6   ar
     5     6     7   ar
     6     7     8   ar
     7     8     9   ar
     8     9    10   ar
     9    10    11    1
    10    11    12    1
    11    12    13    1
    12    13    14    1
    13    14    15   am
    14    15    16    2
    15    15    17   am
    16    17     1    1
    17     1    38    1
    18    38    39    1
    19    39    40   ar
    20    40    41   ar
    21    41    42   ar
    22    42    43   ar
    23    43    44   ar
    24    44    45   ar
    25    45    46   ar
    26    46    47   ar
    27     1    24    1
    28    24    25    2
    29    24    26   am
    30    26    27    1
    31    27    28    1
    32    28    29    1
    33    29    32    1
    34    32    33    1
    35    33    34    1
    36    34    35    1
    37    35    36    1
    38    36    37    1
    39    29    30    1
    40    30    31    1
    41    14    18    1
    42    18    19    1
    43    11    20    1
    44    20     3   am
    45    10     5   ar
    46    19    11    1
    47    47    39   ar
    48    31    26    1
    49    47    42   ar
    50    37    32    1
    51     4    21    1
    52    17    22    1
    53    20    23    1
@<TRIPOS>MOLECULE
*****
 47 53 0 0 0
SMALL
GASTEIGER

@<TRIPOS>ATOM
      1 C          60.1672   88.3119    8.2910 C.3     1  UNL1        0.1543
      2 O          58.5016   94.9400    0.3196 O.2     1  UNL1       -0.2525
      3 C          59.5943   94.1817    1.0132 C.2     1  UNL1        0.3046
      4 N          61.0094   94.2942    0.5287 N.am    1  UNL1       -0.2685
      5 C          62.1020   93.5359    1.2224 C.ar    1  UNL1        0.0490
      6 C          63.5172   93.6483    0.7379 C.ar    1  UNL1        0.0144
      7 C          64.6099   92.8900    1.4315 C.ar    1  UNL1        0.0013
      8 C          64.2874   92.0194    2.6096 C.ar    1  UNL1       -0.0002
      9 C          62.8723   91.9070    3.0941 C.ar    1  UNL1       -0.0015
     10 C          61.7795   92.6652    2.4005 C.ar    1  UNL1        0.0074
     11 C          60.3644   92.5528    2.8850 C.3     1  UNL1        0.0816
     12 C          61.4571   91.7946    3.5786 C.3     1  UNL1        0.0439
     13 C          61.1346   90.9239    4.7567 C.3     1  UNL1        0.0969
     14 N          59.7195   90.8115    5.2412 N.am    1  UNL1       -0.2641
     15 C          59.3970   89.9408    6.4193 C.2     1  UNL1        0.3043
     16 O          57.9819   89.8284    6.9038 O.2     1  UNL1       -0.2526
     17 N          60.4896   89.1826    7.1129 N.am    1  UNL1       -0.2822
     18 C          58.6268   91.5698    4.5476 C.3     1  UNL1        0.0969
     19 C          58.9493   92.4404    3.3695 C.3     1  UNL1        0.0439
     20 N          59.2718   93.3111    2.1913 N.am    1  UNL1       -0.2882
     21 H          61.2210   94.8656   -0.2445 H       1  UNL1        0.1564
     22 H          61.4184   89.2564    6.7949 H       1  UNL1        0.1514
     23 H          58.3430   93.2373    2.5093 H       1  UNL1        0.1512
     24 C          59.9982   88.9223    9.6508 C.2     1  UNL1        0.2439
     25 O          58.6757   88.8349   10.3531 O.2     1  UNL1       -0.2731
     26 N          61.1518   89.6202   10.3082 N.am    1  UNL1       -0.2781
     27 C          62.4744   89.7076    9.6059 C.3     1  UNL1        0.0948
     28 C          63.6280   90.4055   10.2634 C.3     1  UNL1        0.0375
     29 C          63.4590   91.0158   11.6231 C.3     1  UNL1        0.0609
     30 C          62.1365   90.9284   12.3254 C.3     1  UNL1        0.0375
     31 C          60.9829   90.2306   11.6680 C.3     1  UNL1        0.0948
     32 N          64.6126   91.7137   12.2805 N.3     1  UNL1       -0.2738
     33 C          65.0581   91.2981   13.6513 C.3     1  UNL1        0.0720
     34 C          66.2117   91.9960   14.3087 C.3     1  UNL1        0.0174
     35 C          66.9199   93.1094   13.5954 C.3     1  UNL1        0.0029
     36 C          66.4744   93.5249   12.2246 C.3     1  UNL1        0.0174
     37 C          65.3208   92.8271   11.5672 C.3     1  UNL1        0.0720
     38 C          60.0136   86.8309    8.1094 C.3     1  UNL1        0.0559
     39 C          61.2054   85.9307    8.2479 C.ar    1  UNL1       -0.0131
     40 C          61.9686   85.2988    7.1217 C.ar    1  UNL1        0.0312
     41 S          63.0782   84.4820    7.7146 S.2     1  UNL1       -0.0868
     42 C          63.0008   84.6090    9.2072 C.ar    1  UNL1        0.0292
     43 C          63.8347   84.0251   10.3088 C.ar    1  UNL1        0.0065
     44 C          63.5112   84.3365   11.7400 C.ar    1  UNL1        0.0005
     45 C          62.3537   85.2319   12.0696 C.ar    1  UNL1        0.0000
     46 C          61.5198   85.8159   10.9679 C.ar    1  UNL1        0.0002
     47 C          61.8434   85.5044    9.5368 C.ar    1  UNL1        0.0026
@<TRIPOS>BOND
     1     2     3    2
     2     3     4   am
     3     4     5    1
     4     5     6   ar
     5     6     7   ar
     6     7     8   ar
     7     8     9   ar
     8     9    10   ar
     9    10    11    1
    10    11    12    1
    11    12    13    1
    12    13    14    1
    13    14    15   am
    14    15    16    2
    15    15    17   am
    16    17     1    1
    17     1    38    1
    18    38    39    1
    19    39    40   ar
    20    40    41   ar
    21    41    42   ar
    22    42    43   ar
    23    43    44   ar
    24    44    45   ar
    25    45    46   ar
    26    46    47   ar
    27     1    24    1
    28    24    25    2
    29    24    26   am
    30    26    27    1
    31    27    28    1
    32    28    29    1
    33    29    32    1
    34    32    33    1
    35    33    34    1
    36    34    35    1
    37    35    36    1
    38    36    37    1
    39    29    30    1
    40    30    31    1
    41    14    18    1
    42    18    19    1
    43    11    20    1
    44    20     3   am
    45    10     5   ar
    46    19    11    1
    47    47    39   ar
    48    31    26    1
    49    47    42   ar
    50    37    32    1
    51     4    21    1
    52    17    22    1
    53    20    23    1
