@<TRIPOS>MOLECULE
*****
 45 50 0 0 0
SMALL
GASTEIGER

@<TRIPOS>ATOM
      1 C          59.7168   89.4027    7.5323 C.2     1  UNL1        0.2461
      2 O          58.8850   88.2501    7.0530 O.2     1  UNL1       -0.2701
      3 N          59.6647   90.7166    6.8106 N.am    1  UNL1       -0.2964
      4 H          60.2106   91.4730    7.1253 H       1  UNL1        0.1501
      5 C          63.8784   90.4513   12.2587 C.ar    1  UNL1        0.0738
      6 C          63.3286   89.0558   12.2799 C.ar    1  UNL1       -0.0038
      7 C          62.3684   88.9184   11.1357 C.ar    1  UNL1        0.0133
      8 C          61.5282   87.7693   10.6630 C.ar    1  UNL1        0.0013
      9 C          60.6443   87.9307    9.4619 C.ar    1  UNL1        0.0046
     10 C          60.6007   89.2413    8.7335 C.ar    1  UNL1        0.0548
     11 C          61.4409   90.3904    9.2062 C.ar    1  UNL1        0.0217
     12 C          62.3247   90.2290   10.4073 C.ar    1  UNL1        0.0598
     13 N          63.2579   91.1763   11.1014 N.ar    1  UNL1       -0.3242
     14 C          63.5240   92.5989   10.7073 C.3     1  UNL1        0.1305
     15 C          67.8600   92.7323   16.1244 C.3     1  UNL1        0.0327
     16 C          66.8646   92.1620   15.1580 C.ar    1  UNL1       -0.0027
     17 C          67.2685   91.8879   13.7397 C.ar    1  UNL1       -0.0011
     18 C          66.2731   91.3176   12.7732 C.ar    1  UNL1        0.0203
     19 C          64.8738   91.0215   13.2251 C.ar    1  UNL1        0.0967
     20 N          64.4699   91.2957   14.6434 N.ar    1  UNL1       -0.2427
     21 C          65.4653   91.8660   15.6099 C.ar    1  UNL1        0.0946
     22 C          63.6777   87.9856   13.2713 C.3     1  UNL1        0.0238
     23 C          64.2213   88.2059   14.6517 C.3     1  UNL1        0.0044
     24 C          64.4241   86.8636   15.2899 C.3     1  UNL1        0.0003
     25 C          64.0056   85.8137   14.3037 C.3     1  UNL1        0.0003
     26 C          63.5443   86.5071   13.0561 C.3     1  UNL1        0.0044
     27 C          58.7808   90.8780    5.6094 C.3     1  UNL1        0.1260
     28 C          57.6153   90.3572    6.3972 C.3     1  UNL1        0.0270
     29 C          56.7314   90.5186    5.1961 C.3     1  UNL1        0.0043
     30 C          57.8968   91.0393    4.4084 C.3     1  UNL1        0.0270
     31 C          59.9462   91.3987    4.8217 C.2     1  UNL1        0.2419
     32 O          61.3433   91.0050    5.2003 O.2     1  UNL1       -0.2731
     33 N          59.7146   92.3131    3.6554 N.am    1  UNL1       -0.2826
     34 H          58.7977   92.5715    3.4070 H       1  UNL1        0.1549
     35 C          60.8802   92.8339    2.8677 C.ar    1  UNL1        0.0503
     36 C          60.7256   94.0650    2.0248 C.ar    1  UNL1        0.0147
     37 C          61.8911   94.5857    1.2371 C.ar    1  UNL1        0.0013
     38 C          63.2111   93.8754    1.2923 C.ar    1  UNL1        0.0001
     39 C          63.3656   92.6443    2.1352 C.ar    1  UNL1        0.0013
     40 C          62.2001   92.1235    2.9230 C.ar    1  UNL1        0.0147
     41 C          64.3766   94.3961    0.5046 C.2     1  UNL1        0.0012
     42 C          64.2053   95.5891   -0.3884 C.2     1  UNL1        0.0151
     43 C          65.3707   96.1099   -1.1761 C.2     1  UNL1        0.0729
     44 O          65.3540   96.0411   -2.6745 O.co2   1  UNL1       -0.5446
     45 O          66.5529   96.6993   -0.4655 O.co2   1  UNL1       -0.5446
@<TRIPOS>UNITY_ATOM_ATTR
44 1
charge -1
@<TRIPOS>BOND
     1    15    16    1
     2    16    17   ar
     3    17    18   ar
     4    18    19   ar
     5    19     5    1
     6     5     6   ar
     7     6    22    1
     8    22    23    1
     9    23    24    1
    10    24    25    1
    11    25    26    1
    12     6     7   ar
    13     7     8   ar
    14     8     9   ar
    15     9    10   ar
    16    10     1    1
    17     1     2    2
    18     1     3   am
    19     3    27    1
    20    27    31    1
    21    31    32    2
    22    31    33   am
    23    33    35    1
    24    35    36   ar
    25    36    37   ar
    26    37    38   ar
    27    38    41    1
    28    41    42    2
    29    42    43    1
    30    43    44   ar
    31    43    45   ar
    32    38    39   ar
    33    39    40   ar
    34    27    28    1
    35    28    29    1
    36    29    30    1
    37    10    11   ar
    38    11    12   ar
    39    12    13   ar
    40    13    14    1
    41    19    20   ar
    42    20    21   ar
    43    21    16   ar
    44    13     5   ar
    45    26    22    1
    46    12     7   ar
    47    30    27    1
    48    40    35   ar
    49     3     4    1
    50    33    34    1
@<TRIPOS>MOLECULE
*****
 45 50 0 0 0
SMALL
GASTEIGER

@<TRIPOS>ATOM
      1 C          61.0548   89.3844    9.8322 C.2     1  UNL1        0.2461
      2 O          60.0567   88.9212   10.8517 O.2     1  UNL1       -0.2701
      3 N          60.9269   88.9449    8.4038 N.am    1  UNL1       -0.2964
      4 H          61.5820   89.2489    7.7347 H       1  UNL1        0.1501
      5 C          65.8809   92.1024   13.0068 C.ar    1  UNL1        0.0738
      6 C          65.5737   92.8082   11.7194 C.ar    1  UNL1       -0.0038
      7 C          64.4327   92.0925   11.0592 C.ar    1  UNL1        0.0133
      8 C          63.7048   92.3380    9.7708 C.ar    1  UNL1        0.0013
      9 C          62.5788   91.4353    9.3619 C.ar    1  UNL1        0.0046
     10 C          62.1808   90.2871   10.2412 C.ar    1  UNL1        0.0548
     11 C          62.9087   90.0416   11.5295 C.ar    1  UNL1        0.0217
     12 C          64.0347   90.9444   11.9385 C.ar    1  UNL1        0.0598
     13 N          64.9297   90.9505   13.1422 N.ar    1  UNL1       -0.3242
     14 C          64.8819   89.9757   14.2813 C.3     1  UNL1        0.1305
     15 C          70.1624   93.6202   16.9266 C.3     1  UNL1        0.0327
     16 C          69.0920   93.2408   15.9467 C.ar    1  UNL1       -0.0027
     17 C          67.6484   93.4569   16.2918 C.ar    1  UNL1       -0.0011
     18 C          66.5780   93.0774   15.3119 C.ar    1  UNL1        0.0203
     19 C          66.9513   92.4819   13.9868 C.ar    1  UNL1        0.0967
     20 N          68.3949   92.2658   13.6416 N.ar    1  UNL1       -0.2427
     21 C          69.4653   92.6452   14.6216 C.ar    1  UNL1        0.0946
     22 C          66.2830   94.0175   11.1859 C.3     1  UNL1        0.0238
     23 C          66.1805   95.4114   11.7302 C.3     1  UNL1        0.0044
     24 C          67.0535   96.3006   10.8952 C.3     1  UNL1        0.0003
     25 C          67.6954   95.4561    9.8346 C.3     1  UNL1        0.0003
     26 C          67.2192   94.0450   10.0143 C.3     1  UNL1        0.0044
     27 C          59.8009   88.0421    7.9948 C.3     1  UNL1        0.1260
     28 C          59.2593   89.1211    7.1046 C.3     1  UNL1        0.0270
     29 C          58.1333   88.2184    6.6955 C.3     1  UNL1        0.0043
     30 C          58.6749   87.1395    7.5857 C.3     1  UNL1        0.0270
     31 C          60.3424   86.9632    8.8850 C.2     1  UNL1        0.2419
     32 O          59.4028   86.0958    9.6692 O.2     1  UNL1       -0.2731
     33 N          61.8236   86.7515    8.9911 N.am    1  UNL1       -0.2826
     34 H          62.4404   87.3207    8.4764 H       1  UNL1        0.1549
     35 C          62.3652   85.6725    9.8813 C.ar    1  UNL1        0.0503
     36 C          63.2086   84.5754    9.3023 C.ar    1  UNL1        0.0147
     37 C          63.7501   83.4964   10.1925 C.ar    1  UNL1        0.0013
     38 C          63.4483   83.5144   11.6618 C.ar    1  UNL1        0.0001
     39 C          62.6049   84.6115   12.2408 C.ar    1  UNL1        0.0013
     40 C          62.0634   85.6905   11.3505 C.ar    1  UNL1        0.0147
     41 C          63.9898   82.4355   12.5519 C.2     1  UNL1        0.0012
     42 C          63.0605   81.4252   13.1566 C.2     1  UNL1        0.0151
     43 C          63.6020   80.3462   14.0468 C.2     1  UNL1        0.0729
     44 O          62.7660   79.1400   14.3572 O.co2   1  UNL1       -0.5446
     45 O          64.9796   80.4733   14.6266 O.co2   1  UNL1       -0.5446
@<TRIPOS>UNITY_ATOM_ATTR
44 1
charge -1
@<TRIPOS>BOND
     1    15    16    1
     2    16    17   ar
     3    17    18   ar
     4    18    19   ar
     5    19     5    1
     6     5     6   ar
     7     6    22    1
     8    22    23    1
     9    23    24    1
    10    24    25    1
    11    25    26    1
    12     6     7   ar
    13     7     8   ar
    14     8     9   ar
    15     9    10   ar
    16    10     1    1
    17     1     2    2
    18     1     3   am
    19     3    27    1
    20    27    31    1
    21    31    32    2
    22    31    33   am
    23    33    35    1
    24    35    36   ar
    25    36    37   ar
    26    37    38   ar
    27    38    41    1
    28    41    42    2
    29    42    43    1
    30    43    44   ar
    31    43    45   ar
    32    38    39   ar
    33    39    40   ar
    34    27    28    1
    35    28    29    1
    36    29    30    1
    37    10    11   ar
    38    11    12   ar
    39    12    13   ar
    40    13    14    1
    41    19    20   ar
    42    20    21   ar
    43    21    16   ar
    44    13     5   ar
    45    26    22    1
    46    12     7   ar
    47    30    27    1
    48    40    35   ar
    49     3     4    1
    50    33    34    1
@<TRIPOS>MOLECULE
*****
 45 50 0 0 0
SMALL
GASTEIGER

@<TRIPOS>ATOM
      1 C          59.0241   89.7443    6.9343 C.2     1  UNL1        0.2461
      2 O          57.6723   89.1505    6.6697 O.2     1  UNL1       -0.2701
      3 N          59.5229   90.8794    6.0902 N.am    1  UNL1       -0.2964
      4 H          60.4101   91.2691    6.2639 H       1  UNL1        0.1501
      5 C          62.3206   85.8695   10.7912 C.ar    1  UNL1        0.0738
      6 C          62.3853   87.3026   11.2291 C.ar    1  UNL1       -0.0038
      7 C          61.5831   88.1200   10.2604 C.ar    1  UNL1        0.0133
      8 C          61.2906   89.5894   10.1884 C.ar    1  UNL1        0.0013
      9 C          60.4376   90.1308    9.0797 C.ar    1  UNL1        0.0046
     10 C          59.8771   89.2028    8.0430 C.ar    1  UNL1        0.0548
     11 C          60.1696   87.7334    8.1151 C.ar    1  UNL1        0.0217
     12 C          61.0226   87.1920    9.2238 C.ar    1  UNL1        0.0598
     13 N          61.4784   85.8011    9.5518 N.ar    1  UNL1       -0.3242
     14 C          61.1497   84.5597    8.7766 C.3     1  UNL1        0.1305
     15 C          64.9661   81.2256   13.5182 C.3     1  UNL1        0.0327
     16 C          64.3047   82.3866   12.8364 C.ar    1  UNL1       -0.0027
     17 C          64.6936   82.7544   11.4352 C.ar    1  UNL1       -0.0011
     18 C          64.0323   83.9153   10.7535 C.ar    1  UNL1        0.0203
     19 C          62.9820   84.7085   11.4730 C.ar    1  UNL1        0.0967
     20 N          62.5930   84.3407   12.8741 N.ar    1  UNL1       -0.2427
     21 C          63.2544   83.1797   13.5559 C.ar    1  UNL1        0.0946
     22 C          63.1227   87.8265   12.4257 C.3     1  UNL1        0.0238
     23 C          63.3861   89.2700   12.7367 C.3     1  UNL1        0.0044
     24 C          64.1524   89.3346   14.0246 C.3     1  UNL1        0.0003
     25 C          64.3626   87.9307   14.5095 C.3     1  UNL1        0.0003
     26 C          63.7262   86.9987   13.5214 C.3     1  UNL1        0.0044
     27 C          58.6699   91.4209    4.9814 C.3     1  UNL1        0.1260
     28 C          57.4417   90.9193    5.6814 C.3     1  UNL1        0.0270
     29 C          56.5887   91.4607    4.5728 C.3     1  UNL1        0.0043
     30 C          57.8168   91.9623    3.8728 C.3     1  UNL1        0.0270
     31 C          59.8980   91.9225    4.2815 C.2     1  UNL1        0.2419
     32 O          61.2579   91.5394    4.7856 O.2     1  UNL1       -0.2731
     33 N          59.7664   92.8072    3.0773 N.am    1  UNL1       -0.2826
     34 H          58.8739   93.0586    2.7464 H       1  UNL1        0.1549
     35 C          60.9946   93.3088    2.3773 C.ar    1  UNL1        0.0503
     36 C          61.0338   94.7099    1.8430 C.ar    1  UNL1        0.0147
     37 C          62.2620   95.2115    1.1431 C.ar    1  UNL1        0.0013
     38 C          63.4510   94.3121    0.9774 C.ar    1  UNL1        0.0001
     39 C          63.4117   92.9110    1.5117 C.ar    1  UNL1        0.0013
     40 C          62.1835   92.4094    2.2117 C.ar    1  UNL1        0.0147
     41 C          64.6791   94.8137    0.2774 C.2     1  UNL1        0.0012
     42 C          64.5775   95.9560   -0.6895 C.2     1  UNL1        0.0151
     43 C          65.8056   96.4576   -1.3895 C.2     1  UNL1        0.0729
     44 O          67.0139   96.8529   -0.5933 O.co2   1  UNL1       -0.5446
     45 O          65.8255   96.5640   -2.8856 O.co2   1  UNL1       -0.5446
@<TRIPOS>UNITY_ATOM_ATTR
44 1
charge -1
@<TRIPOS>BOND
     1    15    16    1
     2    16    17   ar
     3    17    18   ar
     4    18    19   ar
     5    19     5    1
     6     5     6   ar
     7     6    22    1
     8    22    23    1
     9    23    24    1
    10    24    25    1
    11    25    26    1
    12     6     7   ar
    13     7     8   ar
    14     8     9   ar
    15     9    10   ar
    16    10     1    1
    17     1     2    2
    18     1     3   am
    19     3    27    1
    20    27    31    1
    21    31    32    2
    22    31    33   am
    23    33    35    1
    24    35    36   ar
    25    36    37   ar
    26    37    38   ar
    27    38    41    1
    28    41    42    2
    29    42    43    1
    30    43    44   ar
    31    43    45   ar
    32    38    39   ar
    33    39    40   ar
    34    27    28    1
    35    28    29    1
    36    29    30    1
    37    10    11   ar
    38    11    12   ar
    39    12    13   ar
    40    13    14    1
    41    19    20   ar
    42    20    21   ar
    43    21    16   ar
    44    13     5   ar
    45    26    22    1
    46    12     7   ar
    47    30    27    1
    48    40    35   ar
    49     3     4    1
    50    33    34    1
@<TRIPOS>MOLECULE
*****
 45 50 0 0 0
SMALL
GASTEIGER

@<TRIPOS>ATOM
      1 C          58.9089   89.1883    6.7423 C.2     1  UNL1        0.2461
      2 O          57.4219   89.0010    6.6798 O.2     1  UNL1       -0.2701
      3 N          59.5629   90.2715    5.9368 N.am    1  UNL1       -0.2964
      4 H          60.5388   90.3944    5.9778 H       1  UNL1        0.1501
      5 C          62.1992   86.7294   11.6295 C.ar    1  UNL1        0.0738
      6 C          62.2032   85.8315   10.4279 C.ar    1  UNL1       -0.0038
      7 C          61.4076   86.5005    9.3466 C.ar    1  UNL1        0.0133
      8 C          61.0704   86.0850    7.9453 C.ar    1  UNL1        0.0013
      9 C          60.2376   86.9809    7.0772 C.ar    1  UNL1        0.0046
     10 C          59.7418   88.2924    7.6105 C.ar    1  UNL1        0.0548
     11 C          60.0789   88.7079    9.0117 C.ar    1  UNL1        0.0217
     12 C          60.9118   87.8120    9.8798 C.ar    1  UNL1        0.0598
     13 N          61.4011   87.9534   11.2907 N.ar    1  UNL1       -0.3242
     14 C          61.1383   89.1150   12.2027 C.3     1  UNL1        0.1305
     15 C          64.9014   85.6200   16.8704 C.3     1  UNL1        0.0327
     16 C          64.2258   85.8974   15.5602 C.ar    1  UNL1       -0.0027
     17 C          64.5224   87.1662   14.8173 C.ar    1  UNL1       -0.0011
     18 C          63.8469   87.4436   13.5070 C.ar    1  UNL1        0.0203
     19 C          62.8748   86.4521   12.9397 C.ar    1  UNL1        0.0967
     20 N          62.5782   85.1832   13.6826 N.ar    1  UNL1       -0.2427
     21 C          63.2537   84.9059   14.9929 C.ar    1  UNL1        0.0946
     22 C          62.8835   84.4985   10.3257 C.3     1  UNL1        0.0238
     23 C          62.7001   83.3410   11.2618 C.3     1  UNL1        0.0044
     24 C          63.5698   82.2161   10.7840 C.3     1  UNL1        0.0003
     25 C          64.2907   82.6785    9.5525 C.3     1  UNL1        0.0003
     26 C          63.8665   84.0892    9.2693 C.3     1  UNL1        0.0044
     27 C          58.7299   91.1674    5.0686 C.3     1  UNL1        0.1260
     28 C          57.4864   90.6537    5.7316 C.3     1  UNL1        0.0270
     29 C          56.6535   91.5496    4.8636 C.3     1  UNL1        0.0043
     30 C          57.8970   92.0633    4.2005 C.3     1  UNL1        0.0270
     31 C          59.9735   91.6811    4.4056 C.2     1  UNL1        0.2419
     32 O          61.3217   91.2894    4.9339 O.2     1  UNL1       -0.2731
     33 N          59.8689   92.5866    3.2143 N.am    1  UNL1       -0.2826
     34 H          58.9841   92.8437    2.8676 H       1  UNL1        0.1549
     35 C          61.1126   93.1003    2.5513 C.ar    1  UNL1        0.0503
     36 C          61.1020   94.4367    1.8702 C.ar    1  UNL1        0.0147
     37 C          62.3455   94.9505    1.2072 C.ar    1  UNL1        0.0013
     38 C          63.5997   94.1278    1.2252 C.ar    1  UNL1        0.0001
     39 C          63.6103   92.7914    1.9063 C.ar    1  UNL1        0.0013
     40 C          62.3667   92.2777    2.5694 C.ar    1  UNL1        0.0147
     41 C          64.8433   94.6415    0.5622 C.2     1  UNL1        0.0012
     42 C          64.7966   95.9073   -0.2414 C.2     1  UNL1        0.0151
     43 C          66.0402   96.4210   -0.9044 C.2     1  UNL1        0.0729
     44 O          66.1141   96.5011   -2.4005 O.co2   1  UNL1       -0.5446
     45 O          67.2098   96.8546   -0.0714 O.co2   1  UNL1       -0.5446
@<TRIPOS>UNITY_ATOM_ATTR
44 1
charge -1
@<TRIPOS>BOND
     1    15    16    1
     2    16    17   ar
     3    17    18   ar
     4    18    19   ar
     5    19     5    1
     6     5     6   ar
     7     6    22    1
     8    22    23    1
     9    23    24    1
    10    24    25    1
    11    25    26    1
    12     6     7   ar
    13     7     8   ar
    14     8     9   ar
    15     9    10   ar
    16    10     1    1
    17     1     2    2
    18     1     3   am
    19     3    27    1
    20    27    31    1
    21    31    32    2
    22    31    33   am
    23    33    35    1
    24    35    36   ar
    25    36    37   ar
    26    37    38   ar
    27    38    41    1
    28    41    42    2
    29    42    43    1
    30    43    44   ar
    31    43    45   ar
    32    38    39   ar
    33    39    40   ar
    34    27    28    1
    35    28    29    1
    36    29    30    1
    37    10    11   ar
    38    11    12   ar
    39    12    13   ar
    40    13    14    1
    41    19    20   ar
    42    20    21   ar
    43    21    16   ar
    44    13     5   ar
    45    26    22    1
    46    12     7   ar
    47    30    27    1
    48    40    35   ar
    49     3     4    1
    50    33    34    1
@<TRIPOS>MOLECULE
*****
 45 50 0 0 0
SMALL
GASTEIGER

@<TRIPOS>ATOM
      1 C          61.0181   89.4134    9.8524 C.2     1  UNL1        0.2461
      2 O          60.1124   88.8049   10.8817 O.2     1  UNL1       -0.2701
      3 N          60.7923   89.1346    8.3960 N.am    1  UNL1       -0.2964
      4 H          61.3868   89.5340    7.7204 H       1  UNL1        0.1501
      5 C          65.8606   92.0364   13.0817 C.ar    1  UNL1        0.0738
      6 C          65.5581   92.7699   11.8087 C.ar    1  UNL1       -0.0038
      7 C          64.4128   92.0749   11.1340 C.ar    1  UNL1        0.0133
      8 C          63.6868   92.3508    9.8508 C.ar    1  UNL1        0.0013
      9 C          62.5552   91.4637    9.4236 C.ar    1  UNL1        0.0046
     10 C          62.1497   90.3005   10.2797 C.ar    1  UNL1        0.0548
     11 C          62.8758   90.0246   11.5629 C.ar    1  UNL1        0.0217
     12 C          64.0074   90.9118   11.9900 C.ar    1  UNL1        0.0598
     13 N          64.9021   90.8880   13.1937 N.ar    1  UNL1       -0.3242
     14 C          64.8479   89.8908   14.3130 C.3     1  UNL1        0.1305
     15 C          70.1506   93.4479   17.0317 C.3     1  UNL1        0.0327
     16 C          69.0781   93.0951   16.0442 C.ar    1  UNL1       -0.0027
     17 C          67.6342   93.1924   16.4384 C.ar    1  UNL1       -0.0011
     18 C          66.5616   92.8395   15.4509 C.ar    1  UNL1        0.0203
     19 C          66.9331   92.3893   14.0692 C.ar    1  UNL1        0.0967
     20 N          68.3770   92.2919   13.6749 N.ar    1  UNL1       -0.2427
     21 C          69.4495   92.6448   14.6624 C.ar    1  UNL1        0.0946
     22 C          66.2752   93.9851   11.2997 C.3     1  UNL1        0.0238
     23 C          67.1969   94.0344   10.1174 C.3     1  UNL1        0.0044
     24 C          67.6878   95.4442    9.9706 C.3     1  UNL1        0.0003
     25 C          67.0694   96.2662   11.0623 C.3     1  UNL1        0.0003
     26 C          66.1964   95.3645   11.8838 C.3     1  UNL1        0.0044
     27 C          59.6607   88.2475    7.9687 C.3     1  UNL1        0.1260
     28 C          59.9130   87.3573    9.1494 C.3     1  UNL1        0.0270
     29 C          58.7814   86.4701    8.7222 C.3     1  UNL1        0.0043
     30 C          58.5292   87.3603    7.5416 C.3     1  UNL1        0.0270
     31 C          59.4085   89.1376    6.7881 C.2     1  UNL1        0.2419
     32 O          58.0829   89.0963    6.0873 O.2     1  UNL1       -0.2731
     33 N          60.4818   90.0691    6.3083 N.am    1  UNL1       -0.2826
     34 H          61.3519   90.0963    6.7682 H       1  UNL1        0.1549
     35 C          60.2296   90.9594    5.1276 C.ar    1  UNL1        0.0503
     36 C          61.3541   91.3103    4.1991 C.ar    1  UNL1        0.0147
     37 C          61.1019   92.2005    3.0184 C.ar    1  UNL1        0.0013
     38 C          59.7250   92.7397    2.7663 C.ar    1  UNL1        0.0001
     39 C          58.6005   92.3888    3.6948 C.ar    1  UNL1        0.0013
     40 C          58.8527   91.4986    4.8755 C.ar    1  UNL1        0.0147
     41 C          59.4728   93.6299    1.5856 C.2     1  UNL1        0.0012
     42 C          58.8660   93.0642    0.3359 C.2     1  UNL1        0.0151
     43 C          58.6138   93.9544   -0.8448 C.2     1  UNL1        0.0729
     44 O          57.2328   94.0637   -1.4202 O.co2   1  UNL1       -0.5446
     45 O          59.7425   94.7352   -1.4500 O.co2   1  UNL1       -0.5446
@<TRIPOS>UNITY_ATOM_ATTR
44 1
charge -1
@<TRIPOS>BOND
     1    15    16    1
     2    16    17   ar
     3    17    18   ar
     4    18    19   ar
     5    19     5    1
     6     5     6   ar
     7     6    22    1
     8    22    23    1
     9    23    24    1
    10    24    25    1
    11    25    26    1
    12     6     7   ar
    13     7     8   ar
    14     8     9   ar
    15     9    10   ar
    16    10     1    1
    17     1     2    2
    18     1     3   am
    19     3    27    1
    20    27    31    1
    21    31    32    2
    22    31    33   am
    23    33    35    1
    24    35    36   ar
    25    36    37   ar
    26    37    38   ar
    27    38    41    1
    28    41    42    2
    29    42    43    1
    30    43    44   ar
    31    43    45   ar
    32    38    39   ar
    33    39    40   ar
    34    27    28    1
    35    28    29    1
    36    29    30    1
    37    10    11   ar
    38    11    12   ar
    39    12    13   ar
    40    13    14    1
    41    19    20   ar
    42    20    21   ar
    43    21    16   ar
    44    13     5   ar
    45    26    22    1
    46    12     7   ar
    47    30    27    1
    48    40    35   ar
    49     3     4    1
    50    33    34    1
