@<TRIPOS>MOLECULE
*****
 47 52 0 0 0
SMALL
GASTEIGER

@<TRIPOS>ATOM
      1 C          64.2949   89.8602   13.3319 C.ar    1  UNL1        0.1348
      2 C          63.5512   90.6813   12.3207 C.ar    1  UNL1        0.0346
      3 C          62.6889   90.0072   11.2950 C.ar    1  UNL1        0.0065
      4 C          62.5702   88.5120   11.2806 C.ar    1  UNL1        0.0432
      5 C          63.3138   87.6909   12.2919 C.ar    1  UNL1        0.1256
      6 N          64.1762   88.3650   13.3175 N.ar    1  UNL1       -0.2222
      7 C          61.7078   87.8380   10.2550 C.ar    1  UNL1        0.0850
      8 C          60.2244   88.0020   10.1049 C.ar    1  UNL1        0.0992
      9 N          59.7772   87.1469    8.9565 N.ar    1  UNL1       -0.2265
     10 C          60.9843   86.4544    8.3967 C.ar    1  UNL1        0.1474
     11 C          61.1512   85.4901    7.2600 C.ar    1  UNL1        0.0332
     12 C          62.5112   84.9528    6.9257 C.ar    1  UNL1       -0.0174
     13 C          62.6781   83.9885    5.7890 C.3     1  UNL1        0.0312
     14 C          63.7044   85.3799    7.7282 C.ar    1  UNL1        0.0149
     15 C          63.5375   86.3442    8.8650 C.ar    1  UNL1        0.0811
     16 N          62.1775   86.8815    9.1992 N.ar    1  UNL1       -0.2888
     17 C          59.3428   88.8689   10.9542 C.ar    1  UNL1        0.0253
     18 C          59.4246   90.3624   10.8393 C.ar    1  UNL1        0.0224
     19 C          58.5430   91.2293   11.6886 C.ar    1  UNL1        0.1021
     20 N          57.5797   90.6029   12.6528 N.ar    1  UNL1       -0.2101
     21 C          57.4980   89.1096   12.7677 C.ar    1  UNL1        0.2250
     22 C          58.3796   88.2426   11.9184 C.ar    1  UNL1        0.0593
     23 O          56.5347   88.4832   13.7319 O.3     1  UNL1       -0.4561
     24 C          55.5455   87.4645   13.2486 C.3     1  UNL1        0.2542
     25 C          66.0680   91.6550   13.9521 C.2     1  UNL1        0.2414
     26 O          66.1165   92.1016   12.5209 O.2     1  UNL1       -0.2733
     27 N          65.1572   90.5343   14.3576 N.am    1  UNL1       -0.2682
     28 H          65.1254   90.2411   15.2969 H       1  UNL1        0.1563
     29 C          66.9304   92.3290   14.9778 C.3     1  UNL1        0.1319
     30 C          66.3780   92.6339   16.3387 C.3     1  UNL1        0.0270
     31 C          69.1772   93.4566   15.6337 C.3     1  UNL1        0.0862
     32 N          68.3450   92.6982   14.6426 N.3     1  UNL1       -0.2902
     33 H          68.8388   91.8269   14.4492 H       1  UNL1        0.1237
     34 C          63.1952   86.1956   12.2775 C.1     1  UNL1       -0.0404
     35 C          63.0765   84.7004   12.2632 C.1     1  UNL1       -0.0583
     36 C          62.9579   83.2052   12.2488 C.ar    1  UNL1        0.0421
     37 C          62.7034   82.4607   13.5259 C.ar    1  UNL1        0.0097
     38 C          62.5847   80.9655   13.5115 C.ar    1  UNL1        0.0179
     39 C          62.7206   80.2148   12.2200 C.ar    1  UNL1        0.0625
     40 C          62.9750   80.9592   10.9429 C.ar    1  UNL1        0.0166
     41 C          63.1109   80.2085    9.6514 C.ar    1  UNL1        0.0063
     42 C          62.9922   78.7133    9.6370 C.ar    1  UNL1        0.0608
     43 C          62.7377   77.9687   10.9142 C.ar    1  UNL1        0.2610
     44 O          62.6191   76.4735   10.8997 O.2     1  UNL1       -0.2670
     45 N          62.6019   78.7195   12.2056 N.ar    1  UNL1       -0.2935
     46 C          62.3474   77.9750   13.4827 C.3     1  UNL1        0.1335
     47 C          63.0937   82.4544   10.9573 C.ar    1  UNL1        0.0097
@<TRIPOS>BOND
     1    31    32    1
     2    32    29    1
     3    29    30    1
     4    29    25    1
     5    25    26    2
     6    25    27   am
     7    27     1    1
     8     1     2   ar
     9     2     3   ar
    10     3     4   ar
    11     4     7    1
    12     7     8   ar
    13     8    17    1
    14    17    18   ar
    15    18    19   ar
    16    19    20   ar
    17    20    21   ar
    18    21    23    1
    19    23    24    1
    20    21    22   ar
    21     8     9   ar
    22     9    10   ar
    23    10    11   ar
    24    11    12   ar
    25    12    13    1
    26    12    14   ar
    27    14    15   ar
    28    15    16   ar
    29     4     5   ar
    30     5    34    1
    31    34    35    3
    32    35    36    1
    33    36    37   ar
    34    37    38   ar
    35    38    39   ar
    36    39    40   ar
    37    40    41   ar
    38    41    42   ar
    39    42    43   ar
    40    43    44    2
    41    43    45   ar
    42    45    46    1
    43    40    47   ar
    44     5     6   ar
    45     6     1   ar
    46    16     7   ar
    47    47    36   ar
    48    22    17   ar
    49    16    10   ar
    50    45    39   ar
    51    32    33    1
    52    27    28    1
@<TRIPOS>MOLECULE
*****
 47 52 0 0 0
SMALL
GASTEIGER

@<TRIPOS>ATOM
      1 C          59.6776   90.0130    6.1224 C.ar    1  UNL1        0.1348
      2 C          59.1710   88.6030    6.1956 C.ar    1  UNL1        0.0346
      3 C          59.5973   87.7105    7.3233 C.ar    1  UNL1        0.0065
      4 C          60.5301   88.2280    8.3778 C.ar    1  UNL1        0.0432
      5 C          61.0366   89.6380    8.3046 C.ar    1  UNL1        0.1256
      6 N          60.6104   90.5304    7.1769 N.ar    1  UNL1       -0.2222
      7 C          60.9563   87.3355    9.5055 C.ar    1  UNL1        0.0850
      8 C          60.5166   87.4499   10.9351 C.ar    1  UNL1        0.0992
      9 N          61.1857   86.3570   11.7148 N.ar    1  UNL1       -0.2265
     10 C          62.0389   85.5671   10.7671 C.ar    1  UNL1        0.1474
     11 C          62.9266   84.3754   10.9711 C.ar    1  UNL1        0.0332
     12 C          63.6726   83.7883    9.8097 C.ar    1  UNL1       -0.0174
     13 C          64.5603   82.5965   10.0136 C.3     1  UNL1        0.0312
     14 C          63.5309   84.3930    8.4443 C.ar    1  UNL1        0.0149
     15 C          62.6432   85.5848    8.2403 C.ar    1  UNL1        0.0811
     16 N          61.8972   86.1719    9.4018 N.ar    1  UNL1       -0.2888
     17 C          59.5734   88.4769   11.4879 C.ar    1  UNL1        0.0253
     18 C          59.8806   89.9372   11.3344 C.ar    1  UNL1        0.0224
     19 C          58.9374   90.9642   11.8872 C.ar    1  UNL1        0.1021
     20 N          57.6870   90.5311   12.5935 N.ar    1  UNL1       -0.2101
     21 C          57.3798   89.0709   12.7469 C.ar    1  UNL1        0.2250
     22 C          58.3230   88.0439   12.1941 C.ar    1  UNL1        0.0593
     23 O          56.1294   88.6378   13.4532 O.3     1  UNL1       -0.4561
     24 C          55.7465   87.1877   13.4791 C.3     1  UNL1        0.2542
     25 C          60.2821   91.6311    4.1818 C.2     1  UNL1        0.2414
     26 O          61.7392   91.4644    4.4966 O.2     1  UNL1       -0.2733
     27 N          59.2513   90.9055    4.9947 N.am    1  UNL1       -0.2682
     28 H          58.2950   91.0149    4.7880 H       1  UNL1        0.1563
     29 C          59.8558   92.5236    3.0540 C.3     1  UNL1        0.1319
     30 C          59.8416   94.0121    3.2398 C.3     1  UNL1        0.0270
     31 C          59.7213   92.6635    0.4632 C.3     1  UNL1        0.0862
     32 N          59.4438   91.9278    1.7406 N.3     1  UNL1       -0.2902
     33 H          59.9115   91.0243    1.6675 H       1  UNL1        0.1237
     34 C          61.9695   90.1555    9.3592 C.1     1  UNL1       -0.0404
     35 C          62.9023   90.6730   10.4137 C.1     1  UNL1       -0.0583
     36 C          63.8351   91.1906   11.4683 C.ar    1  UNL1        0.0421
     37 C          65.0778   91.9313   11.0723 C.ar    1  UNL1        0.0097
     38 C          66.0106   92.4488   12.1268 C.ar    1  UNL1        0.0179
     39 C          65.7006   92.2256   13.5773 C.ar    1  UNL1        0.0625
     40 C          64.4579   91.4848   13.9733 C.ar    1  UNL1        0.0166
     41 C          64.1479   91.2616   15.4239 C.ar    1  UNL1        0.0063
     42 C          65.0807   91.7791   16.4784 C.ar    1  UNL1        0.0608
     43 C          66.3235   92.5199   16.0824 C.ar    1  UNL1        0.2610
     44 O          67.2562   93.0374   17.1370 O.2     1  UNL1       -0.2670
     45 N          66.6335   92.7431   14.6319 N.ar    1  UNL1       -0.2935
     46 C          67.8762   93.4838   14.2359 C.3     1  UNL1        0.1335
     47 C          63.5251   90.9673   12.9188 C.ar    1  UNL1        0.0097
@<TRIPOS>BOND
     1    31    32    1
     2    32    29    1
     3    29    30    1
     4    29    25    1
     5    25    26    2
     6    25    27   am
     7    27     1    1
     8     1     2   ar
     9     2     3   ar
    10     3     4   ar
    11     4     7    1
    12     7     8   ar
    13     8    17    1
    14    17    18   ar
    15    18    19   ar
    16    19    20   ar
    17    20    21   ar
    18    21    23    1
    19    23    24    1
    20    21    22   ar
    21     8     9   ar
    22     9    10   ar
    23    10    11   ar
    24    11    12   ar
    25    12    13    1
    26    12    14   ar
    27    14    15   ar
    28    15    16   ar
    29     4     5   ar
    30     5    34    1
    31    34    35    3
    32    35    36    1
    33    36    37   ar
    34    37    38   ar
    35    38    39   ar
    36    39    40   ar
    37    40    41   ar
    38    41    42   ar
    39    42    43   ar
    40    43    44    2
    41    43    45   ar
    42    45    46    1
    43    40    47   ar
    44     5     6   ar
    45     6     1   ar
    46    16     7   ar
    47    47    36   ar
    48    22    17   ar
    49    16    10   ar
    50    45    39   ar
    51    32    33    1
    52    27    28    1
@<TRIPOS>MOLECULE
*****
 47 52 0 0 0
SMALL
GASTEIGER

@<TRIPOS>ATOM
      1 C          59.7355   89.7871    6.3897 C.ar    1  UNL1        0.1348
      2 C          59.2949   88.3534    6.4122 C.ar    1  UNL1        0.0346
      3 C          59.7365   87.4505    7.5256 C.ar    1  UNL1        0.0065
      4 C          60.6187   87.9811    8.6165 C.ar    1  UNL1        0.0432
      5 C          61.0592   89.4147    8.5940 C.ar    1  UNL1        0.1256
      6 N          60.6176   90.3177    7.4806 N.ar    1  UNL1       -0.2222
      7 C          61.0603   87.0781    9.7299 C.ar    1  UNL1        0.0850
      8 C          60.6205   87.1635   11.1614 C.ar    1  UNL1        0.0992
      9 N          61.3076   86.0694   11.9235 N.ar    1  UNL1       -0.2265
     10 C          62.1720   85.3078   10.9629 C.ar    1  UNL1        0.1474
     11 C          63.0786   84.1271   11.1476 C.ar    1  UNL1        0.0332
     12 C          63.8323   83.5699    9.9765 C.ar    1  UNL1       -0.0174
     13 C          64.7389   82.3892   10.1611 C.3     1  UNL1        0.0312
     14 C          63.6795   84.1933    8.6207 C.ar    1  UNL1        0.0149
     15 C          62.7729   85.3739    8.4361 C.ar    1  UNL1        0.0811
     16 N          62.0192   85.9312    9.6072 N.ar    1  UNL1       -0.2888
     17 C          59.6619   88.1669   11.7309 C.ar    1  UNL1        0.0253
     18 C          59.8873   89.6324   11.5037 C.ar    1  UNL1        0.0224
     19 C          58.9287   90.6358   12.0732 C.ar    1  UNL1        0.1021
     20 N          57.7448   90.1738   12.8699 N.ar    1  UNL1       -0.2101
     21 C          57.5194   88.7083   13.0972 C.ar    1  UNL1        0.2250
     22 C          58.4780   87.7049   12.5276 C.ar    1  UNL1        0.0593
     23 O          56.3355   88.2462   13.8939 O.3     1  UNL1       -0.4561
     24 C          55.0848   87.8064   13.1924 C.3     1  UNL1        0.2542
     25 C          60.3130   91.4322    4.4636 C.2     1  UNL1        0.2414
     26 O          61.7738   91.2714    4.7642 O.2     1  UNL1       -0.2733
     27 N          59.2939   90.6901    5.2763 N.am    1  UNL1       -0.2682
     28 H          58.3351   90.7956    5.0790 H       1  UNL1        0.1563
     29 C          59.8714   92.3352    3.3502 C.3     1  UNL1        0.1319
     30 C          58.4235   92.3951    2.9626 C.3     1  UNL1        0.0270
     31 C          61.6433   92.6043    1.4694 C.3     1  UNL1        0.0862
     32 N          60.8775   93.1782    2.6244 N.3     1  UNL1       -0.2902
     33 H          60.3777   93.9938    2.2702 H       1  UNL1        0.1237
     34 C          61.9414   89.9455    9.6850 C.1     1  UNL1       -0.0404
     35 C          62.8236   90.4762   10.7759 C.1     1  UNL1       -0.0583
     36 C          63.7058   91.0069   11.8668 C.ar    1  UNL1        0.0421
     37 C          63.6808   90.3736   13.2263 C.ar    1  UNL1        0.0097
     38 C          64.5630   90.9043   14.3172 C.ar    1  UNL1        0.0179
     39 C          65.4702   92.0683   14.0486 C.ar    1  UNL1        0.0625
     40 C          65.4952   92.7016   12.6891 C.ar    1  UNL1        0.0166
     41 C          66.4023   93.8656   12.4204 C.ar    1  UNL1        0.0063
     42 C          67.2845   94.3963   13.5113 C.ar    1  UNL1        0.0608
     43 C          67.2595   93.7631   14.8709 C.ar    1  UNL1        0.2610
     44 O          68.1417   94.2938   15.9618 O.2     1  UNL1       -0.2670
     45 N          66.3524   92.5991   15.1395 N.ar    1  UNL1       -0.2935
     46 C          66.3274   91.9658   16.4990 C.3     1  UNL1        0.1335
     47 C          64.6130   92.1709   11.5982 C.ar    1  UNL1        0.0097
@<TRIPOS>BOND
     1    31    32    1
     2    32    29    1
     3    29    30    1
     4    29    25    1
     5    25    26    2
     6    25    27   am
     7    27     1    1
     8     1     2   ar
     9     2     3   ar
    10     3     4   ar
    11     4     7    1
    12     7     8   ar
    13     8    17    1
    14    17    18   ar
    15    18    19   ar
    16    19    20   ar
    17    20    21   ar
    18    21    23    1
    19    23    24    1
    20    21    22   ar
    21     8     9   ar
    22     9    10   ar
    23    10    11   ar
    24    11    12   ar
    25    12    13    1
    26    12    14   ar
    27    14    15   ar
    28    15    16   ar
    29     4     5   ar
    30     5    34    1
    31    34    35    3
    32    35    36    1
    33    36    37   ar
    34    37    38   ar
    35    38    39   ar
    36    39    40   ar
    37    40    41   ar
    38    41    42   ar
    39    42    43   ar
    40    43    44    2
    41    43    45   ar
    42    45    46    1
    43    40    47   ar
    44     5     6   ar
    45     6     1   ar
    46    16     7   ar
    47    47    36   ar
    48    22    17   ar
    49    16    10   ar
    50    45    39   ar
    51    32    33    1
    52    27    28    1
@<TRIPOS>MOLECULE
*****
 47 52 0 0 0
SMALL
GASTEIGER

@<TRIPOS>ATOM
      1 C          60.7226   87.9313    8.6145 C.ar    1  UNL1        0.1348
      2 C          60.4444   86.5835    9.2111 C.ar    1  UNL1        0.0346
      3 C          61.0811   86.1933   10.5120 C.ar    1  UNL1        0.0065
      4 C          61.9959   87.1509   11.2163 C.ar    1  UNL1        0.0432
      5 C          62.2741   88.4986   10.6196 C.ar    1  UNL1        0.1256
      6 N          61.6375   88.8888    9.3187 N.ar    1  UNL1       -0.2222
      7 C          62.6326   86.7607   12.5172 C.ar    1  UNL1        0.0850
      8 C          63.2464   85.4292   12.8341 C.ar    1  UNL1        0.0992
      9 N          63.7604   85.4790   14.2424 N.ar    1  UNL1       -0.2265
     10 C          63.4643   86.8413   14.7959 C.ar    1  UNL1        0.1474
     11 C          63.7393   87.4629   16.1331 C.ar    1  UNL1        0.0332
     12 C          63.3173   88.8766   16.4040 C.ar    1  UNL1       -0.0174
     13 C          63.5923   89.4982   17.7411 C.3     1  UNL1        0.0312
     14 C          62.6202   89.6688   15.3378 C.ar    1  UNL1        0.0149
     15 C          62.3452   89.0472   14.0007 C.ar    1  UNL1        0.0811
     16 N          62.7673   87.6334   13.7297 N.ar    1  UNL1       -0.2888
     17 C          63.3313   84.2541   11.9056 C.ar    1  UNL1        0.0253
     18 C          63.7859   84.4485   10.4894 C.ar    1  UNL1        0.0224
     19 C          63.8708   83.2734    9.5609 C.ar    1  UNL1        0.1021
     20 N          63.5011   81.9040   10.0487 N.ar    1  UNL1       -0.2101
     21 C          63.0466   81.7096   11.4649 C.ar    1  UNL1        0.2250
     22 C          62.9617   82.8847   12.3933 C.ar    1  UNL1        0.0593
     23 O          62.6769   80.3401   11.9526 O.3     1  UNL1       -0.4561
     24 C          62.2610   80.1391   13.3797 C.3     1  UNL1        0.2542
     25 C          59.4518   89.6726    7.1644 C.2     1  UNL1        0.2414
     26 O          59.4543   90.6336    8.3162 O.2     1  UNL1       -0.2733
     27 N          60.0859   88.3215    7.3135 N.am    1  UNL1       -0.2682
     28 H          60.0843   87.6908    6.5576 H       1  UNL1        0.1563
     29 C          58.8151   90.0628    5.8635 C.3     1  UNL1        0.1319
     30 C          59.6699   90.5065    4.7134 C.3     1  UNL1        0.0270
     31 C          56.5918   91.1579    5.0840 C.3     1  UNL1        0.0862
     32 N          57.3237   90.0093    5.7125 N.3     1  UNL1       -0.2902
     33 H          57.1140   89.1839    5.1511 H       1  UNL1        0.1237
     34 C          63.1890   89.4563   11.3239 C.1     1  UNL1       -0.0404
     35 C          64.1039   90.4139   12.0281 C.1     1  UNL1       -0.0583
     36 C          65.0188   91.3715   12.7324 C.ar    1  UNL1        0.0421
     37 C          65.0864   92.8043   12.2937 C.ar    1  UNL1        0.0097
     38 C          66.0013   93.7619   12.9980 C.ar    1  UNL1        0.0179
     39 C          66.8485   93.2867   14.1409 C.ar    1  UNL1        0.0625
     40 C          66.7809   91.8539   14.5796 C.ar    1  UNL1        0.0166
     41 C          67.6282   91.3787   15.7226 C.ar    1  UNL1        0.0063
     42 C          68.5430   92.3363   16.4268 C.ar    1  UNL1        0.0608
     43 C          68.6107   93.7691   15.9881 C.ar    1  UNL1        0.2610
     44 O          69.5256   94.7267   16.6924 O.2     1  UNL1       -0.2670
     45 N          67.7635   94.2444   14.8452 N.ar    1  UNL1       -0.2935
     46 C          67.8311   95.6771   14.4065 C.3     1  UNL1        0.1335
     47 C          65.8661   90.8963   13.8754 C.ar    1  UNL1        0.0097
@<TRIPOS>BOND
     1    31    32    1
     2    32    29    1
     3    29    30    1
     4    29    25    1
     5    25    26    2
     6    25    27   am
     7    27     1    1
     8     1     2   ar
     9     2     3   ar
    10     3     4   ar
    11     4     7    1
    12     7     8   ar
    13     8    17    1
    14    17    18   ar
    15    18    19   ar
    16    19    20   ar
    17    20    21   ar
    18    21    23    1
    19    23    24    1
    20    21    22   ar
    21     8     9   ar
    22     9    10   ar
    23    10    11   ar
    24    11    12   ar
    25    12    13    1
    26    12    14   ar
    27    14    15   ar
    28    15    16   ar
    29     4     5   ar
    30     5    34    1
    31    34    35    3
    32    35    36    1
    33    36    37   ar
    34    37    38   ar
    35    38    39   ar
    36    39    40   ar
    37    40    41   ar
    38    41    42   ar
    39    42    43   ar
    40    43    44    2
    41    43    45   ar
    42    45    46    1
    43    40    47   ar
    44     5     6   ar
    45     6     1   ar
    46    16     7   ar
    47    47    36   ar
    48    22    17   ar
    49    16    10   ar
    50    45    39   ar
    51    32    33    1
    52    27    28    1
