@<TRIPOS>MOLECULE
*****
 46 52 0 0 0
SMALL
GASTEIGER

@<TRIPOS>ATOM
      1 C          62.1483   86.9884   10.4952 C.2     1  UNL1        0.0770
      2 N          62.7099   86.1953   11.6378 N.2     1  UNL1       -0.2460
      3 C          63.2897   87.1591   12.6303 C.2     1  UNL1        0.0773
      4 C          63.9764   86.9515   13.9476 C.2     1  UNL1        0.0182
      5 C          64.4599   88.1326   14.7357 C.2     1  UNL1       -0.0062
      6 C          64.2567   89.5214   14.2064 C.2     1  UNL1       -0.0322
      7 C          63.5700   89.7290   12.8892 C.3     1  UNL1        0.0500
      8 C          63.0865   88.5478   12.1011 C.2     1  UNL1       -0.0029
      9 C          62.3811   88.4423   10.7815 C.2     1  UNL1       -0.0057
     10 C          57.8691   86.3432    7.6190 C.3     1  UNL1        0.0310
     11 C          59.3331   86.1037    7.8416 C.ar    1  UNL1       -0.0221
     12 C          60.1214   85.3021    6.8486 C.ar    1  UNL1       -0.0085
     13 C          61.5853   85.0627    7.0711 C.ar    1  UNL1       -0.0221
     14 C          62.3736   84.2610    6.0781 C.3     1  UNL1        0.0310
     15 C          62.2609   85.6248    8.2867 C.ar    1  UNL1       -0.0028
     16 C          61.4727   86.4263    9.2796 C.ar    1  UNL1        0.0167
     17 C          60.0088   86.6658    9.0571 C.ar    1  UNL1       -0.0028
     18 C          64.7403   90.7025   14.9945 C.3     1  UNL1        0.0845
     19 C          64.1987   90.0863   16.2503 C.3     1  UNL1        0.0132
     20 C          65.2818   91.3188   13.7388 C.3     1  UNL1        0.0132
     21 C          65.2238   91.8836   15.7827 C.2     1  UNL1        0.2281
     22 O          64.2901   92.5952   16.7166 O.2     1  UNL1       -0.2746
     23 N          67.7937   92.2936   15.1558 N.am    1  UNL1       -0.2809
     24 C          68.2310   93.3616   15.8684 C.3     1  UNL1        0.0933
     25 C          68.5415   94.0041   16.2794 C.3     1  UNL1        0.0200
     26 C          69.4751   93.2925   15.3454 C.3     1  UNL1        0.0034
     27 C          68.9916   92.1114   14.5573 C.3     1  UNL1        0.0199
     28 C          67.5745   91.6418   14.7031 C.3     1  UNL1        0.0753
     29 C          66.6409   92.3533   15.6369 C.3     1  UNL1        0.0199
     30 C          67.1244   93.5344   16.4251 C.3     1  UNL1        0.0034
     31 C          61.9790   89.5894    9.9026 C.3     1  UNL1        0.0393
     32 C          62.9115   90.7483    9.7085 C.3     1  UNL1        0.0062
     33 C          60.6446   89.5778    9.2177 C.3     1  UNL1        0.0730
     34 N          60.5173   90.0915    7.8142 N.3     1  UNL1       -0.2969
     35 H          61.4145   89.9267    7.3578 H       1  UNL1        0.1233
     36 C          59.4608   89.5367    6.9054 C.3     1  UNL1        0.0730
     37 C          58.7974   90.4260    5.8959 C.3     1  UNL1        0.0395
     38 C          59.6260   91.1611    4.8844 C.2     1  UNL1       -0.0368
     39 C          59.0035   92.2358    4.0433 C.2     1  UNL1       -0.0064
     40 C          59.8321   92.9709    3.0318 C.2     1  UNL1        0.0216
     41 C          61.2832   92.6313    2.8615 C.2     1  UNL1        0.1201
     42 N          62.3426   93.1806    1.9526 N.2     1  UNL1       -0.1274
     43 N          63.6198   92.4453    2.2321 N.2     1  UNL1       -0.0424
     44 N          63.3498   91.4417    3.3137 N.2     1  UNL1       -0.1312
     45 C          61.9057   91.5566    3.7027 C.2     1  UNL1        0.1055
     46 C          61.0771   90.8215    4.7141 C.3     1  UNL1        0.0713
@<TRIPOS>BOND
     1    10    11    1
     2    11    12   ar
     3    12    13   ar
     4    13    14    1
     5    13    15   ar
     6    15    16   ar
     7    16     1    1
     8     1     2    2
     9     2     3    1
    10     3     4    2
    11     4     5    1
    12     5     6    2
    13     6    18    1
    14    18    19    1
    15    18    20    1
    16    18    21    1
    17    21    22    2
    18    21    23   am
    19    23    24    1
    20    24    25    1
    21    25    26    1
    22    26    27    1
    23    27    28    1
    24    28    29    1
    25    29    30    1
    26     6     7    1
    27     7     8    1
    28     8     9    2
    29     9    31    1
    30    31    32    1
    31    31    33    1
    32    33    34    1
    33    34    36    1
    34    36    37    1
    35    37    38    1
    36    38    39    2
    37    39    40    1
    38    40    41    2
    39    41    42    1
    40    42    43    2
    41    43    44    1
    42    44    45    2
    43    45    46    1
    44    16    17   ar
    45    17    11   ar
    46     9     1    1
    47    46    38    1
    48     8     3    1
    49    45    41    1
    50    28    23    1
    51    30    25    1
    52    34    35    1
@<TRIPOS>MOLECULE
*****
 46 52 0 0 0
SMALL
GASTEIGER

@<TRIPOS>ATOM
      1 C          61.9818   87.2885   10.9856 C.2     1  UNL1        0.0770
      2 N          61.1164   86.3684   10.1766 N.2     1  UNL1       -0.2460
      3 C          60.5024   87.1672    9.0653 C.2     1  UNL1        0.0773
      4 C          59.5636   86.7898    7.9580 C.2     1  UNL1        0.0182
      5 C          59.1107   87.8263    6.9729 C.2     1  UNL1       -0.0062
      6 C          59.5966   89.2402    7.0950 C.2     1  UNL1       -0.0322
      7 C          60.5354   89.6175    8.2024 C.3     1  UNL1        0.0500
      8 C          60.9883   88.5810    9.1875 C.2     1  UNL1       -0.0029
      9 C          61.9026   88.6560   10.3743 C.2     1  UNL1       -0.0057
     10 C          64.0497   83.6339   14.0462 C.3     1  UNL1        0.0310
     11 C          63.8193   85.0807   13.7240 C.ar    1  UNL1       -0.0221
     12 C          64.3923   86.1468   14.6099 C.ar    1  UNL1       -0.0085
     13 C          64.1619   87.5935   14.2877 C.ar    1  UNL1       -0.0221
     14 C          64.7349   88.6598   15.1736 C.3     1  UNL1        0.0310
     15 C          63.3584   87.9741   13.0796 C.ar    1  UNL1       -0.0028
     16 C          62.7853   86.9079   12.1937 C.ar    1  UNL1        0.0167
     17 C          63.0158   85.4612   12.5159 C.ar    1  UNL1       -0.0028
     18 C          59.1437   90.2767    6.1098 C.3     1  UNL1        0.0845
     19 C          60.5348   90.8354    6.0583 C.3     1  UNL1        0.0132
     20 C          57.7526   89.7179    6.1614 C.3     1  UNL1        0.0132
     21 C          58.6909   91.3131    5.1246 C.2     1  UNL1        0.2281
     22 O          57.2642   91.7767    5.1262 O.2     1  UNL1       -0.2746
     23 N          60.7964   91.9883    3.6158 N.am    1  UNL1       -0.2809
     24 C          60.3869   92.9255    2.7250 C.3     1  UNL1        0.0933
     25 C          60.1853   93.4956    2.1660 C.3     1  UNL1        0.0200
     26 C          61.6120   93.0320    2.1645 C.3     1  UNL1        0.0034
     27 C          62.0648   91.9955    3.1496 C.3     1  UNL1        0.0199
     28 C          61.0911   91.4226    4.1364 C.3     1  UNL1        0.0753
     29 C          59.6646   91.8861    4.1379 C.3     1  UNL1        0.0199
     30 C          59.2116   92.9226    3.1527 C.3     1  UNL1        0.0034
     31 C          62.6131   89.8831   10.8638 C.3     1  UNL1        0.0393
     32 C          63.5403   90.6278    9.9495 C.3     1  UNL1        0.0062
     33 C          62.3964   90.3654   12.2674 C.3     1  UNL1        0.0730
     34 N          63.2466   91.4706   12.8204 N.3     1  UNL1       -0.2969
     35 H          62.8528   91.7191   13.7279 H       1  UNL1        0.1233
     36 C          64.7157   91.2532   13.0306 C.3     1  UNL1        0.0730
     37 C          65.6308   92.4292   13.2034 C.3     1  UNL1        0.0395
     38 C          66.1930   93.1254   11.9996 C.2     1  UNL1       -0.0368
     39 C          66.8784   92.3324   10.9266 C.2     1  UNL1       -0.0064
     40 C          67.4406   93.0286    9.7228 C.2     1  UNL1        0.0216
     41 C          67.3174   94.5178    9.5919 C.2     1  UNL1        0.1201
     42 N          67.7703   95.4727    8.5275 N.2     1  UNL1       -0.1274
     43 N          67.3647   96.8559    8.9426 N.2     1  UNL1       -0.0424
     44 N          66.6612   96.7558   10.2636 N.2     1  UNL1       -0.1312
     45 C          66.6320   95.3107   10.6649 C.2     1  UNL1        0.1055
     46 C          66.0698   94.6146   11.8687 C.3     1  UNL1        0.0713
@<TRIPOS>BOND
     1    10    11    1
     2    11    12   ar
     3    12    13   ar
     4    13    14    1
     5    13    15   ar
     6    15    16   ar
     7    16     1    1
     8     1     2    2
     9     2     3    1
    10     3     4    2
    11     4     5    1
    12     5     6    2
    13     6    18    1
    14    18    19    1
    15    18    20    1
    16    18    21    1
    17    21    22    2
    18    21    23   am
    19    23    24    1
    20    24    25    1
    21    25    26    1
    22    26    27    1
    23    27    28    1
    24    28    29    1
    25    29    30    1
    26     6     7    1
    27     7     8    1
    28     8     9    2
    29     9    31    1
    30    31    32    1
    31    31    33    1
    32    33    34    1
    33    34    36    1
    34    36    37    1
    35    37    38    1
    36    38    39    2
    37    39    40    1
    38    40    41    2
    39    41    42    1
    40    42    43    2
    41    43    44    1
    42    44    45    2
    43    45    46    1
    44    16    17   ar
    45    17    11   ar
    46     9     1    1
    47    46    38    1
    48     8     3    1
    49    45    41    1
    50    28    23    1
    51    30    25    1
    52    34    35    1
@<TRIPOS>MOLECULE
*****
 46 52 0 0 0
SMALL
GASTEIGER

@<TRIPOS>ATOM
      1 C          61.6729   86.9031   10.6824 C.2     1  UNL1        0.0770
      2 N          60.9207   86.0564    9.6989 N.2     1  UNL1       -0.2460
      3 C          60.3713   86.9595    8.6347 C.2     1  UNL1        0.0773
      4 C          59.5486   86.6841    7.4111 C.2     1  UNL1        0.0182
      5 C          59.1386   87.8136    6.5132 C.2     1  UNL1       -0.0062
      6 C          59.5513   89.2184    6.8390 C.2     1  UNL1       -0.0322
      7 C          60.3740   89.4938    8.0626 C.3     1  UNL1        0.0500
      8 C          60.7840   88.3643    8.9605 C.2     1  UNL1       -0.0029
      9 C          61.5884   88.3294   10.2260 C.2     1  UNL1       -0.0057
     10 C          62.9446   83.0181   13.8903 C.3     1  UNL1        0.0310
     11 C          63.0205   84.4675   13.5112 C.ar    1  UNL1       -0.0221
     12 C          63.8082   85.4237   14.3570 C.ar    1  UNL1       -0.0085
     13 C          63.8841   86.8730   13.9779 C.ar    1  UNL1       -0.0221
     14 C          64.6718   87.8292   14.8236 C.3     1  UNL1        0.0310
     15 C          63.1723   87.3661   12.7530 C.ar    1  UNL1       -0.0028
     16 C          62.3847   86.4099   11.9073 C.ar    1  UNL1        0.0167
     17 C          62.3088   84.9606   12.2864 C.ar    1  UNL1       -0.0028
     18 C          59.1412   90.3479    5.9411 C.3     1  UNL1        0.0845
     19 C          57.7119   89.9022    6.0333 C.3     1  UNL1        0.0132
     20 C          60.5704   90.7936    5.8490 C.3     1  UNL1        0.0132
     21 C          58.7311   91.4773    5.0433 C.2     1  UNL1        0.2281
     22 O          57.3413   92.0355    5.1272 O.2     1  UNL1       -0.2746
     23 N          60.8297   92.1090    3.5063 N.am    1  UNL1       -0.2809
     24 C          60.4589   93.1302    2.6944 C.3     1  UNL1        0.0933
     25 C          60.2802   93.7494    2.1817 C.3     1  UNL1        0.0200
     26 C          61.6700   93.1912    2.0978 C.3     1  UNL1        0.0034
     27 C          62.0801   92.0618    2.9957 C.3     1  UNL1        0.0199
     28 C          61.1004   91.4905    3.9775 C.3     1  UNL1        0.0753
     29 C          59.7107   92.0486    4.0614 C.3     1  UNL1        0.0199
     30 C          59.3005   93.1781    3.1636 C.3     1  UNL1        0.0034
     31 C          62.2009   89.5131   10.9143 C.3     1  UNL1        0.0393
     32 C          61.6313   90.0033   12.2127 C.3     1  UNL1        0.0062
     33 C          63.3827   90.2068   10.3045 C.3     1  UNL1        0.0730
     34 N          63.2670   91.6346    9.8595 N.3     1  UNL1       -0.2969
     35 H          62.3258   91.9434   10.1025 H       1  UNL1        0.1233
     36 C          64.2136   92.6667   10.3970 C.3     1  UNL1        0.0730
     37 C          65.6177   92.2813   10.7574 C.3     1  UNL1        0.0395
     38 C          66.0303   92.2121   12.1979 C.2     1  UNL1       -0.0368
     39 C          65.0463   91.7684   13.2394 C.2     1  UNL1       -0.0064
     40 C          65.4588   91.6993   14.6799 C.2     1  UNL1        0.0216
     41 C          66.8554   92.0739   15.0789 C.2     1  UNL1        0.1201
     42 N          67.5447   92.1045   16.4108 N.2     1  UNL1       -0.1274
     43 N          68.9547   92.5672   16.1924 N.2     1  UNL1       -0.0424
     44 N          69.1369   92.8225   14.7256 N.2     1  UNL1       -0.1312
     45 C          67.8394   92.5176   14.0374 C.2     1  UNL1        0.1055
     46 C          67.4269   92.5867   12.5969 C.3     1  UNL1        0.0713
@<TRIPOS>BOND
     1    10    11    1
     2    11    12   ar
     3    12    13   ar
     4    13    14    1
     5    13    15   ar
     6    15    16   ar
     7    16     1    1
     8     1     2    2
     9     2     3    1
    10     3     4    2
    11     4     5    1
    12     5     6    2
    13     6    18    1
    14    18    19    1
    15    18    20    1
    16    18    21    1
    17    21    22    2
    18    21    23   am
    19    23    24    1
    20    24    25    1
    21    25    26    1
    22    26    27    1
    23    27    28    1
    24    28    29    1
    25    29    30    1
    26     6     7    1
    27     7     8    1
    28     8     9    2
    29     9    31    1
    30    31    32    1
    31    31    33    1
    32    33    34    1
    33    34    36    1
    34    36    37    1
    35    37    38    1
    36    38    39    2
    37    39    40    1
    38    40    41    2
    39    41    42    1
    40    42    43    2
    41    43    44    1
    42    44    45    2
    43    45    46    1
    44    16    17   ar
    45    17    11   ar
    46     9     1    1
    47    46    38    1
    48     8     3    1
    49    45    41    1
    50    28    23    1
    51    30    25    1
    52    34    35    1
@<TRIPOS>MOLECULE
*****
 46 52 0 0 0
SMALL
GASTEIGER

@<TRIPOS>ATOM
      1 C          61.6874   86.6494   10.7059 C.2     1  UNL1        0.0770
      2 N          61.0080   85.8087    9.6659 N.2     1  UNL1       -0.2460
      3 C          60.4494   86.7271    8.6197 C.2     1  UNL1        0.0773
      4 C          59.6797   86.4630    7.3597 C.2     1  UNL1        0.0182
      5 C          59.2441   87.6072    6.4931 C.2     1  UNL1       -0.0062
      6 C          59.5783   89.0156    6.8866 C.2     1  UNL1       -0.0322
      7 C          60.3481   89.2797    8.1466 C.3     1  UNL1        0.0500
      8 C          60.7836   88.1355    9.0131 C.2     1  UNL1       -0.0029
      9 C          61.5487   88.0874   10.3025 C.2     1  UNL1       -0.0057
     10 C          64.6955   87.5096   14.8546 C.3     1  UNL1        0.0310
     11 C          63.8873   86.5713   14.0080 C.ar    1  UNL1       -0.0221
     12 C          63.7751   85.1250   14.3893 C.ar    1  UNL1       -0.0085
     13 C          62.9669   84.1868   13.5428 C.ar    1  UNL1       -0.0221
     14 C          62.8547   82.7403   13.9241 C.3     1  UNL1        0.0310
     15 C          62.2711   84.6949   12.3150 C.ar    1  UNL1       -0.0028
     16 C          62.3833   86.1412   11.9337 C.ar    1  UNL1        0.0167
     17 C          63.1914   87.0795   12.7802 C.ar    1  UNL1       -0.0028
     18 C          59.1427   90.1598    6.0199 C.3     1  UNL1        0.0845
     19 C          57.7165   89.7132    6.1472 C.3     1  UNL1        0.0132
     20 C          60.5690   90.6064    5.8926 C.3     1  UNL1        0.0132
     21 C          58.7071   91.3040    5.1533 C.2     1  UNL1        0.2281
     22 O          57.3060   91.8301    5.2540 O.2     1  UNL1       -0.2746
     23 N          60.7891   92.0211    3.6311 N.am    1  UNL1       -0.2809
     24 C          60.3952   93.0557    2.8475 C.3     1  UNL1        0.0933
     25 C          60.2024   93.6845    2.3519 C.3     1  UNL1        0.0200
     26 C          61.6035   93.1584    2.2512 C.3     1  UNL1        0.0034
     27 C          62.0391   92.0142    3.1178 C.3     1  UNL1        0.0199
     28 C          61.0737   91.3961    4.0852 C.3     1  UNL1        0.0753
     29 C          59.6726   91.9221    4.1859 C.3     1  UNL1        0.0199
     30 C          59.2369   93.0664    3.3193 C.3     1  UNL1        0.0034
     31 C          62.0816   89.2699   11.0560 C.3     1  UNL1        0.0393
     32 C          63.4035   89.8682   10.6754 C.3     1  UNL1        0.0062
     33 C          61.2928   89.8540   12.1902 C.3     1  UNL1        0.0730
     34 N          61.9271   90.0163   13.5398 N.3     1  UNL1       -0.2969
     35 H          61.8751   89.1079   14.0007 H       1  UNL1        0.1233
     36 C          63.3506   90.4765   13.6490 C.3     1  UNL1        0.0730
     37 C          63.8657   91.0190   14.9491 C.3     1  UNL1        0.0395
     38 C          65.2661   91.5491   15.0383 C.2     1  UNL1       -0.0368
     39 C          65.6948   92.3367   16.2407 C.2     1  UNL1       -0.0064
     40 C          67.0952   92.8667   16.3299 C.2     1  UNL1        0.0216
     41 C          68.0670   92.6091   15.2167 C.2     1  UNL1        0.1201
     42 N          69.5020   93.0020   15.0260 N.2     1  UNL1       -0.1274
     43 N          69.9602   92.4571   13.7057 N.2     1  UNL1       -0.0424
     44 N          68.8084   91.7275   13.0805 N.2     1  UNL1       -0.1312
     45 C          67.6383   91.8214   14.0143 C.2     1  UNL1        0.1055
     46 C          66.2379   91.2914   13.9251 C.3     1  UNL1        0.0713
@<TRIPOS>BOND
     1    10    11    1
     2    11    12   ar
     3    12    13   ar
     4    13    14    1
     5    13    15   ar
     6    15    16   ar
     7    16     1    1
     8     1     2    2
     9     2     3    1
    10     3     4    2
    11     4     5    1
    12     5     6    2
    13     6    18    1
    14    18    19    1
    15    18    20    1
    16    18    21    1
    17    21    22    2
    18    21    23   am
    19    23    24    1
    20    24    25    1
    21    25    26    1
    22    26    27    1
    23    27    28    1
    24    28    29    1
    25    29    30    1
    26     6     7    1
    27     7     8    1
    28     8     9    2
    29     9    31    1
    30    31    32    1
    31    31    33    1
    32    33    34    1
    33    34    36    1
    34    36    37    1
    35    37    38    1
    36    38    39    2
    37    39    40    1
    38    40    41    2
    39    41    42    1
    40    42    43    2
    41    43    44    1
    42    44    45    2
    43    45    46    1
    44    16    17   ar
    45    17    11   ar
    46     9     1    1
    47    46    38    1
    48     8     3    1
    49    45    41    1
    50    28    23    1
    51    30    25    1
    52    34    35    1
@<TRIPOS>MOLECULE
*****
 46 52 0 0 0
SMALL
GASTEIGER

@<TRIPOS>ATOM
      1 C          63.1380   83.2782   13.3598 C.2     1  UNL1        0.0770
      2 N          63.1722   83.7350   14.7881 N.2     1  UNL1       -0.2460
      3 C          63.3984   85.2178   14.7954 C.2     1  UNL1        0.0773
      4 C          63.5219   86.2088   15.9146 C.2     1  UNL1        0.0182
      5 C          63.7509   87.6595   15.6099 C.2     1  UNL1       -0.0062
      6 C          63.8565   88.1193   14.1860 C.2     1  UNL1       -0.0322
      7 C          63.7330   87.1283   13.0668 C.3     1  UNL1        0.0500
      8 C          63.5040   85.6775   13.3715 C.2     1  UNL1       -0.0029
      9 C          63.3430   84.4788   12.4843 C.2     1  UNL1       -0.0057
     10 C          62.0761   78.2982   14.3950 C.3     1  UNL1        0.0310
     11 C          62.4035   79.3785   13.4071 C.ar    1  UNL1       -0.0221
     12 C          62.5274   79.0489   11.9490 C.ar    1  UNL1       -0.0085
     13 C          62.8548   80.1292   10.9612 C.ar    1  UNL1       -0.0221
     14 C          62.9787   79.7997    9.5030 C.3     1  UNL1        0.0310
     15 C          63.0583   81.5390   11.4315 C.ar    1  UNL1       -0.0028
     16 C          62.9345   81.8685   12.8895 C.ar    1  UNL1        0.0167
     17 C          62.6070   80.7882   13.8773 C.ar    1  UNL1       -0.0028
     18 C          64.0855   89.5701   13.8813 C.3     1  UNL1        0.0845
     19 C          63.8634   89.2988   12.4229 C.3     1  UNL1        0.0132
     20 C          64.3077   89.8413   15.3397 C.3     1  UNL1        0.0132
     21 C          64.3146   91.0208   13.5766 C.2     1  UNL1        0.2281
     22 O          63.2842   91.7985   12.8127 O.2     1  UNL1       -0.2746
     23 N          66.6854   91.7131   14.6090 N.am    1  UNL1       -0.2809
     24 C          66.8925   93.0249   14.3334 C.3     1  UNL1        0.0933
     25 C          67.0624   93.8178   14.1902 C.3     1  UNL1        0.0200
     26 C          68.0928   93.0401   14.9541 C.3     1  UNL1        0.0034
     27 C          67.8638   91.5893   15.2588 C.3     1  UNL1        0.0199
     28 C          66.6044   90.9163   14.7996 C.3     1  UNL1        0.0753
     29 C          65.5740   91.6939   14.0358 C.3     1  UNL1        0.0199
     30 C          65.8030   93.1447   13.7310 C.3     1  UNL1        0.0034
     31 C          63.3805   84.4804   10.9847 C.3     1  UNL1        0.0393
     32 C          64.4260   83.6856   10.2598 C.3     1  UNL1        0.0062
     33 C          62.3728   85.2767   10.2101 C.3     1  UNL1        0.0730
     34 N          62.6426   85.6398    8.7799 N.3     1  UNL1       -0.2969
     35 H          63.5091   85.1712    8.5156 H       1  UNL1        0.1233
     36 C          61.6329   85.3130    7.7199 C.3     1  UNL1        0.0730
     37 C          60.3227   86.0423    7.6817 C.3     1  UNL1        0.0395
     38 C          60.1357   87.2913    8.4911 C.2     1  UNL1       -0.0368
     39 C          60.1183   88.6290    7.8128 C.2     1  UNL1       -0.0064
     40 C          59.9313   89.8780    8.6222 C.2     1  UNL1        0.0216
     41 C          59.7616   89.7892   10.1100 C.2     1  UNL1        0.1201
     42 N          59.5604   90.8396   11.1616 N.2     1  UNL1       -0.1274
     43 N          59.4533   90.1511   12.4899 N.2     1  UNL1       -0.0424
     44 N          59.5884   88.6751   12.2592 N.2     1  UNL1       -0.1312
     45 C          59.7789   88.4514   10.7882 C.2     1  UNL1        0.1055
     46 C          59.9659   87.2025    9.9788 C.3     1  UNL1        0.0713
@<TRIPOS>BOND
     1    10    11    1
     2    11    12   ar
     3    12    13   ar
     4    13    14    1
     5    13    15   ar
     6    15    16   ar
     7    16     1    1
     8     1     2    2
     9     2     3    1
    10     3     4    2
    11     4     5    1
    12     5     6    2
    13     6    18    1
    14    18    19    1
    15    18    20    1
    16    18    21    1
    17    21    22    2
    18    21    23   am
    19    23    24    1
    20    24    25    1
    21    25    26    1
    22    26    27    1
    23    27    28    1
    24    28    29    1
    25    29    30    1
    26     6     7    1
    27     7     8    1
    28     8     9    2
    29     9    31    1
    30    31    32    1
    31    31    33    1
    32    33    34    1
    33    34    36    1
    34    36    37    1
    35    37    38    1
    36    38    39    2
    37    39    40    1
    38    40    41    2
    39    41    42    1
    40    42    43    2
    41    43    44    1
    42    44    45    2
    43    45    46    1
    44    16    17   ar
    45    17    11   ar
    46     9     1    1
    47    46    38    1
    48     8     3    1
    49    45    41    1
    50    28    23    1
    51    30    25    1
    52    34    35    1
@<TRIPOS>MOLECULE
*****
 46 52 0 0 0
SMALL
GASTEIGER

@<TRIPOS>ATOM
      1 C          60.0157   88.4013    7.0220 C.2     1  UNL1        0.0770
      2 N          60.2757   87.0263    6.4819 N.2     1  UNL1       -0.2460
      3 C          60.9515   86.2264    7.5560 C.2     1  UNL1        0.0773
      4 C          61.4436   84.8100    7.5933 C.2     1  UNL1        0.0182
      5 C          62.0934   84.2743    8.8346 C.2     1  UNL1       -0.0062
      6 C          62.2511   85.1550   10.0385 C.2     1  UNL1       -0.0322
      7 C          61.7589   86.5714   10.0012 C.3     1  UNL1        0.0500
      8 C          61.1091   87.1072    8.7600 C.2     1  UNL1       -0.0029
      9 C          60.5308   88.4513    8.4299 C.2     1  UNL1       -0.0057
     10 C          55.7095   90.9265    5.5798 C.3     1  UNL1        0.0310
     11 C          57.2033   90.7910    5.5627 C.ar    1  UNL1       -0.0221
     12 C          58.0377   91.7826    4.8075 C.ar    1  UNL1       -0.0085
     13 C          59.5314   91.6471    4.7904 C.ar    1  UNL1       -0.0221
     14 C          60.3659   92.6387    4.0352 C.3     1  UNL1        0.0310
     15 C          60.1908   90.5200    5.5286 C.ar    1  UNL1       -0.0028
     16 C          59.3564   89.5284    6.2838 C.ar    1  UNL1        0.0167
     17 C          57.8626   89.6639    6.3009 C.ar    1  UNL1       -0.0028
     18 C          62.9009   84.6192   11.2798 C.3     1  UNL1        0.0845
     19 C          63.8144   83.7781   10.4384 C.3     1  UNL1        0.0132
     20 C          61.9874   85.4603   12.1212 C.3     1  UNL1        0.0132
     21 C          63.5507   84.0834   12.5210 C.2     1  UNL1        0.2281
     22 O          64.4107   84.9783   13.3634 O.2     1  UNL1       -0.2746
     23 N          62.8575   81.5095   12.7660 N.am    1  UNL1       -0.2809
     24 C          63.4451   81.0250   13.8884 C.3     1  UNL1        0.0933
     25 C          63.7804   80.6863   14.5599 C.3     1  UNL1        0.0200
     26 C          62.9204   79.7914   13.7174 C.3     1  UNL1        0.0034
     27 C          62.2706   80.3272   12.4762 C.3     1  UNL1        0.0199
     28 C          62.4807   81.7579   12.0774 C.3     1  UNL1        0.0753
     29 C          63.3406   82.6528   12.9198 C.3     1  UNL1        0.0199
     30 C          63.9905   82.1170   14.1611 C.3     1  UNL1        0.0034
     31 C          60.4770   89.6372    9.3469 C.3     1  UNL1        0.0393
     32 C          61.3453   90.8311    9.0807 C.3     1  UNL1        0.0062
     33 C          59.5550   89.6293   10.5299 C.3     1  UNL1        0.0730
     34 N          60.0284   89.0880   11.8463 N.3     1  UNL1       -0.2969
     35 H          60.3275   88.1272   11.6791 H       1  UNL1        0.1233
     36 C          61.1468   89.7685   12.5785 C.3     1  UNL1        0.0730
     37 C          62.5696   89.3856   12.2976 C.3     1  UNL1        0.0395
     38 C          63.6745   90.3684   12.5495 C.2     1  UNL1       -0.0368
     39 C          64.4406   90.3215   13.8382 C.2     1  UNL1       -0.0064
     40 C          65.5455   91.3043   14.0902 C.2     1  UNL1        0.0216
     41 C          65.8842   92.3340   13.0533 C.2     1  UNL1        0.1201
     42 N          66.9136   93.4245   13.0206 N.2     1  UNL1       -0.1274
     43 N          66.7837   94.1454   11.7117 N.2     1  UNL1       -0.0424
     44 N          65.6740   93.5004   10.9354 N.2     1  UNL1       -0.1312
     45 C          65.1181   92.3809   11.7647 C.2     1  UNL1        0.1055
     46 C          64.0132   91.3981   11.5127 C.3     1  UNL1        0.0713
@<TRIPOS>BOND
     1    10    11    1
     2    11    12   ar
     3    12    13   ar
     4    13    14    1
     5    13    15   ar
     6    15    16   ar
     7    16     1    1
     8     1     2    2
     9     2     3    1
    10     3     4    2
    11     4     5    1
    12     5     6    2
    13     6    18    1
    14    18    19    1
    15    18    20    1
    16    18    21    1
    17    21    22    2
    18    21    23   am
    19    23    24    1
    20    24    25    1
    21    25    26    1
    22    26    27    1
    23    27    28    1
    24    28    29    1
    25    29    30    1
    26     6     7    1
    27     7     8    1
    28     8     9    2
    29     9    31    1
    30    31    32    1
    31    31    33    1
    32    33    34    1
    33    34    36    1
    34    36    37    1
    35    37    38    1
    36    38    39    2
    37    39    40    1
    38    40    41    2
    39    41    42    1
    40    42    43    2
    41    43    44    1
    42    44    45    2
    43    45    46    1
    44    16    17   ar
    45    17    11   ar
    46     9     1    1
    47    46    38    1
    48     8     3    1
    49    45    41    1
    50    28    23    1
    51    30    25    1
    52    34    35    1
@<TRIPOS>MOLECULE
*****
 46 52 0 0 0
SMALL
GASTEIGER

@<TRIPOS>ATOM
      1 C          60.0289   88.4788    7.0104 C.2     1  UNL1        0.0770
      2 N          60.2209   87.0764    6.5140 N.2     1  UNL1       -0.2460
      3 C          60.8892   86.2874    7.6007 C.2     1  UNL1        0.0773
      4 C          61.3249   84.8542    7.6776 C.2     1  UNL1        0.0182
      5 C          61.9817   84.3357    8.9225 C.2     1  UNL1       -0.0062
      6 C          62.2027   85.2505   10.0905 C.2     1  UNL1       -0.0322
      7 C          61.7669   86.6837   10.0137 C.3     1  UNL1        0.0500
      8 C          61.1102   87.2021    8.7688 C.2     1  UNL1       -0.0029
      9 C          60.5785   88.5565    8.4039 C.2     1  UNL1       -0.0057
     10 C          60.4895   92.6758    3.9817 C.3     1  UNL1        0.0310
     11 C          59.6283   91.7041    4.7329 C.ar    1  UNL1       -0.0221
     12 C          58.1365   91.8592    4.7210 C.ar    1  UNL1       -0.0085
     13 C          57.2754   90.8875    5.4722 C.ar    1  UNL1       -0.0221
     14 C          55.7834   91.0426    5.4604 C.3     1  UNL1        0.0310
     15 C          57.9062   89.7607    6.2354 C.ar    1  UNL1       -0.0028
     16 C          59.3981   89.6056    6.2473 C.ar    1  UNL1        0.0167
     17 C          60.2592   90.5772    5.4961 C.ar    1  UNL1       -0.0028
     18 C          62.8596   84.7320   11.3355 C.3     1  UNL1        0.0845
     19 C          61.9305   85.5617   12.1711 C.3     1  UNL1        0.0132
     20 C          63.7886   83.9023   10.4998 C.3     1  UNL1        0.0132
     21 C          63.5163   84.2136   12.5804 C.2     1  UNL1        0.2281
     22 O          64.3378   85.1338   13.4339 O.2     1  UNL1       -0.2746
     23 N          62.9092   81.6165   12.8093 N.am    1  UNL1       -0.2809
     24 C          63.5031   81.1477   13.9350 C.3     1  UNL1        0.0933
     25 C          63.8439   80.8178   14.6082 C.3     1  UNL1        0.0200
     26 C          63.0224   79.8976   13.7546 C.3     1  UNL1        0.0034
     27 C          62.3656   80.4161   12.5097 C.3     1  UNL1        0.0199
     28 C          62.5303   81.8547   12.1183 C.3     1  UNL1        0.0753
     29 C          63.3517   82.7749   12.9718 C.3     1  UNL1        0.0199
     30 C          64.0085   82.2565   14.2168 C.3     1  UNL1        0.0034
     31 C          60.5938   89.7747    9.2790 C.3     1  UNL1        0.0393
     32 C          59.3336   90.2289    9.9543 C.3     1  UNL1        0.0062
     33 C          61.8690   90.5387    9.4789 C.3     1  UNL1        0.0730
     34 N          62.8636   90.0827   10.5049 N.3     1  UNL1       -0.2969
     35 H          63.7072   90.6387   10.3647 H       1  UNL1        0.1233
     36 C          62.5275   90.1663   11.9644 C.3     1  UNL1        0.0730
     37 C          63.5898   89.9190   12.9941 C.3     1  UNL1        0.0395
     38 C          64.5771   90.9979   13.3272 C.2     1  UNL1       -0.0368
     39 C          64.9553   92.0145   12.2911 C.2     1  UNL1       -0.0064
     40 C          65.9427   93.0934   12.6243 C.2     1  UNL1        0.0216
     41 C          66.5518   93.1559   13.9936 C.2     1  UNL1        0.1201
     42 N          67.5453   94.0968   14.6082 N.2     1  UNL1       -0.1274
     43 N          67.7811   93.6617   16.0242 N.2     1  UNL1       -0.0424
     44 N          66.9333   92.4520   16.2847 N.2     1  UNL1       -0.1312
     45 C          66.1736   92.1394   15.0297 C.2     1  UNL1        0.1055
     46 C          65.1863   91.0604   14.6965 C.3     1  UNL1        0.0713
@<TRIPOS>BOND
     1    10    11    1
     2    11    12   ar
     3    12    13   ar
     4    13    14    1
     5    13    15   ar
     6    15    16   ar
     7    16     1    1
     8     1     2    2
     9     2     3    1
    10     3     4    2
    11     4     5    1
    12     5     6    2
    13     6    18    1
    14    18    19    1
    15    18    20    1
    16    18    21    1
    17    21    22    2
    18    21    23   am
    19    23    24    1
    20    24    25    1
    21    25    26    1
    22    26    27    1
    23    27    28    1
    24    28    29    1
    25    29    30    1
    26     6     7    1
    27     7     8    1
    28     8     9    2
    29     9    31    1
    30    31    32    1
    31    31    33    1
    32    33    34    1
    33    34    36    1
    34    36    37    1
    35    37    38    1
    36    38    39    2
    37    39    40    1
    38    40    41    2
    39    41    42    1
    40    42    43    2
    41    43    44    1
    42    44    45    2
    43    45    46    1
    44    16    17   ar
    45    17    11   ar
    46     9     1    1
    47    46    38    1
    48     8     3    1
    49    45    41    1
    50    28    23    1
    51    30    25    1
    52    34    35    1
@<TRIPOS>MOLECULE
*****
 46 52 0 0 0
SMALL
GASTEIGER

@<TRIPOS>ATOM
      1 C          60.0435   88.4778    7.0161 C.2     1  UNL1        0.0770
      2 N          60.2592   87.0826    6.5094 N.2     1  UNL1       -0.2460
      3 C          60.9247   86.2921    7.5967 C.2     1  UNL1        0.0773
      4 C          61.3778   84.8638    7.6657 C.2     1  UNL1        0.0182
      5 C          62.0264   84.3423    8.9135 C.2     1  UNL1       -0.0062
      6 C          62.2220   85.2490   10.0924 C.2     1  UNL1       -0.0322
      7 C          61.7689   86.6772   10.0234 C.3     1  UNL1        0.0500
      8 C          61.1202   87.1988    8.7756 C.2     1  UNL1       -0.0029
      9 C          60.5756   88.5496    8.4167 C.2     1  UNL1       -0.0057
     10 C          55.7859   91.0252    5.4722 C.3     1  UNL1        0.0310
     11 C          57.2786   90.8772    5.4839 C.ar    1  UNL1       -0.0221
     12 C          58.1351   91.8550    4.7353 C.ar    1  UNL1       -0.0085
     13 C          59.6277   91.7070    4.7469 C.ar    1  UNL1       -0.0221
     14 C          60.4842   92.6847    3.9983 C.3     1  UNL1        0.0310
     15 C          60.2638   90.5812    5.5072 C.ar    1  UNL1       -0.0028
     16 C          59.4074   89.6035    6.2558 C.ar    1  UNL1        0.0167
     17 C          57.9148   89.7515    6.2442 C.ar    1  UNL1       -0.0028
     18 C          62.8707   84.7274   11.3403 C.3     1  UNL1        0.0845
     19 C          63.7910   83.8835   10.5091 C.3     1  UNL1        0.0132
     20 C          61.9505   85.5712   12.1715 C.3     1  UNL1        0.0132
     21 C          63.5195   84.2057   12.5881 C.2     1  UNL1        0.2281
     22 O          64.3414   85.1220   13.4454 O.2     1  UNL1       -0.2746
     23 N          62.8991   81.6115   12.8140 N.am    1  UNL1       -0.2809
     24 C          63.4857   81.1399   13.9423 C.3     1  UNL1        0.0933
     25 C          63.8219   80.8084   14.6170 C.3     1  UNL1        0.0200
     26 C          63.0000   79.8921   13.7597 C.3     1  UNL1        0.0034
     27 C          62.3513   80.4137   12.5119 C.3     1  UNL1        0.0199
     28 C          62.5244   81.8516   12.1214 C.3     1  UNL1        0.0753
     29 C          63.3463   82.7679   12.9786 C.3     1  UNL1        0.0199
     30 C          63.9951   82.2463   14.2265 C.3     1  UNL1        0.0034
     31 C          60.5651   89.7597    9.3030 C.3     1  UNL1        0.0393
     32 C          59.2844   90.2118    9.9399 C.3     1  UNL1        0.0062
     33 C          61.8350   90.5179    9.5524 C.3     1  UNL1        0.0730
     34 N          62.2720   90.8075   10.9578 N.3     1  UNL1       -0.2969
     35 H          61.4424   91.1116   11.4673 H       1  UNL1        0.1233
     36 C          62.9148   89.7304   11.7804 C.3     1  UNL1        0.0730
     37 C          63.3273   90.0123   13.1947 C.3     1  UNL1        0.0395
     38 C          64.4011   91.0213   13.4759 C.2     1  UNL1       -0.0368
     39 C          64.9597   91.8529   12.3596 C.2     1  UNL1       -0.0064
     40 C          66.0335   92.8619   12.6408 C.2     1  UNL1        0.0216
     41 C          66.5486   93.0392   14.0384 C.2     1  UNL1        0.1201
     42 N          67.5937   93.9475   14.6152 N.2     1  UNL1       -0.1274
     43 N          67.6809   93.6773   16.0881 N.2     1  UNL1       -0.0424
     44 N          66.6898   92.6019   16.4215 N.2     1  UNL1       -0.1312
     45 C          65.9900   92.2075   15.1547 C.2     1  UNL1        0.1055
     46 C          64.9162   91.1986   14.8735 C.3     1  UNL1        0.0713
@<TRIPOS>BOND
     1    10    11    1
     2    11    12   ar
     3    12    13   ar
     4    13    14    1
     5    13    15   ar
     6    15    16   ar
     7    16     1    1
     8     1     2    2
     9     2     3    1
    10     3     4    2
    11     4     5    1
    12     5     6    2
    13     6    18    1
    14    18    19    1
    15    18    20    1
    16    18    21    1
    17    21    22    2
    18    21    23   am
    19    23    24    1
    20    24    25    1
    21    25    26    1
    22    26    27    1
    23    27    28    1
    24    28    29    1
    25    29    30    1
    26     6     7    1
    27     7     8    1
    28     8     9    2
    29     9    31    1
    30    31    32    1
    31    31    33    1
    32    33    34    1
    33    34    36    1
    34    36    37    1
    35    37    38    1
    36    38    39    2
    37    39    40    1
    38    40    41    2
    39    41    42    1
    40    42    43    2
    41    43    44    1
    42    44    45    2
    43    45    46    1
    44    16    17   ar
    45    17    11   ar
    46     9     1    1
    47    46    38    1
    48     8     3    1
    49    45    41    1
    50    28    23    1
    51    30    25    1
    52    34    35    1
@<TRIPOS>MOLECULE
*****
 46 52 0 0 0
SMALL
GASTEIGER

@<TRIPOS>ATOM
      1 C          62.3324   83.7354   14.5696 C.2     1  UNL1        0.0770
      2 N          62.0018   84.3566   15.8943 N.2     1  UNL1       -0.2460
      3 C          62.5801   85.7405   15.9146 C.2     1  UNL1        0.0773
      4 C          62.5690   86.8177   16.9584 C.2     1  UNL1        0.0182
      5 C          63.2460   88.1290   16.6900 C.2     1  UNL1       -0.0062
      6 C          63.9340   88.3631   15.3778 C.2     1  UNL1       -0.0322
      7 C          63.9450   87.2860   14.3340 C.3     1  UNL1        0.0500
      8 C          63.2681   85.9746   14.6024 C.2     1  UNL1       -0.0029
      9 C          63.1150   84.7354   13.7712 C.2     1  UNL1       -0.0057
     10 C          63.3255   79.4731   11.7684 C.3     1  UNL1        0.0310
     11 C          62.4444   80.2252   12.7214 C.ar    1  UNL1       -0.0221
     12 C          61.1789   79.5983   13.2266 C.ar    1  UNL1       -0.0085
     13 C          60.2978   80.3504   14.1795 C.ar    1  UNL1       -0.0221
     14 C          59.0322   79.7234   14.6848 C.3     1  UNL1        0.0310
     15 C          60.6823   81.7294   14.6272 C.ar    1  UNL1       -0.0028
     16 C          61.9479   82.3564   14.1220 C.ar    1  UNL1        0.0167
     17 C          62.8289   81.6043   13.1691 C.ar    1  UNL1       -0.0028
     18 C          64.6110   89.6745   15.1094 C.3     1  UNL1        0.0845
     19 C          65.7774   88.9490   14.5068 C.3     1  UNL1        0.0132
     20 C          63.4447   90.4000   15.7121 C.3     1  UNL1        0.0132
     21 C          65.2880   90.9859   14.8411 C.2     1  UNL1        0.2281
     22 O          66.0705   91.6622   15.9275 O.2     1  UNL1       -0.2746
     23 N          64.7882   91.6639   12.3002 N.am    1  UNL1       -0.2809
     24 C          65.4004   92.8497   12.0575 C.3     1  UNL1        0.0933
     25 C          65.7541   93.5674   11.8631 C.3     1  UNL1        0.0200
     26 C          64.9716   92.8911   10.7766 C.3     1  UNL1        0.0034
     27 C          64.2946   91.5798   11.0450 C.3     1  UNL1        0.0199
     28 C          64.4001   90.9447   12.3998 C.3     1  UNL1        0.0753
     29 C          65.1825   91.6209   13.4862 C.3     1  UNL1        0.0199
     30 C          65.8596   92.9323   13.2179 C.3     1  UNL1        0.0034
     31 C          63.6505   84.5320   12.3849 C.3     1  UNL1        0.0393
     32 C          65.0412   84.0053   12.1879 C.3     1  UNL1        0.0062
     33 C          62.7955   84.8552   11.1957 C.3     1  UNL1        0.0730
     34 N          63.1057   84.2452    9.8609 N.3     1  UNL1       -0.2969
     35 H          62.4182   83.5075    9.7073 H       1  UNL1        0.1233
     36 C          63.1069   85.0994    8.6279 C.3     1  UNL1        0.0730
     37 C          61.8149   85.6331    8.0840 C.3     1  UNL1        0.0395
     38 C          61.2361   86.9022    8.6358 C.2     1  UNL1       -0.0368
     39 C          60.2650   87.7013    7.8183 C.2     1  UNL1       -0.0064
     40 C          59.6862   88.9703    8.3702 C.2     1  UNL1        0.0216
     41 C          60.0785   89.4403    9.7396 C.2     1  UNL1        0.1201
     42 N          59.6760   90.6421   10.5418 N.2     1  UNL1       -0.1274
     43 N          60.3984   90.5858   11.8552 N.2     1  UNL1       -0.0424
     44 N          61.2473   89.3492   11.8646 N.2     1  UNL1       -0.1312
     45 C          61.0496   88.6412   10.5570 C.2     1  UNL1        0.1055
     46 C          61.6284   87.3722   10.0052 C.3     1  UNL1        0.0713
@<TRIPOS>BOND
     1    10    11    1
     2    11    12   ar
     3    12    13   ar
     4    13    14    1
     5    13    15   ar
     6    15    16   ar
     7    16     1    1
     8     1     2    2
     9     2     3    1
    10     3     4    2
    11     4     5    1
    12     5     6    2
    13     6    18    1
    14    18    19    1
    15    18    20    1
    16    18    21    1
    17    21    22    2
    18    21    23   am
    19    23    24    1
    20    24    25    1
    21    25    26    1
    22    26    27    1
    23    27    28    1
    24    28    29    1
    25    29    30    1
    26     6     7    1
    27     7     8    1
    28     8     9    2
    29     9    31    1
    30    31    32    1
    31    31    33    1
    32    33    34    1
    33    34    36    1
    34    36    37    1
    35    37    38    1
    36    38    39    2
    37    39    40    1
    38    40    41    2
    39    41    42    1
    40    42    43    2
    41    43    44    1
    42    44    45    2
    43    45    46    1
    44    16    17   ar
    45    17    11   ar
    46     9     1    1
    47    46    38    1
    48     8     3    1
    49    45    41    1
    50    28    23    1
    51    30    25    1
    52    34    35    1
