@<TRIPOS>MOLECULE
*****
 49 52 0 0 0
SMALL
GASTEIGER

@<TRIPOS>ATOM
      1 C          63.6094   90.4736   13.2247 C.2     1  UNL1        0.2438
      2 O          62.1582   90.1039   13.1383 O.2     1  UNL1       -0.2731
      3 N          64.2666   91.2022   12.0901 N.am    1  UNL1       -0.2740
      4 C          63.4725   91.5610   10.8691 C.3     1  UNL1        0.0955
      5 C          62.8270   90.4826   10.0505 C.3     1  UNL1        0.0431
      6 C          61.3504   90.2419   10.1578 C.3     1  UNL1        0.0988
      7 N          60.8043   88.8525   10.0118 N.am    1  UNL1       -0.2418
      8 C          59.8104   88.5470    8.9307 C.2     1  UNL1        0.4055
      9 O          59.2643   87.1576    8.7846 O.2     1  UNL1       -0.2262
     10 C          61.2522   87.7685   10.9468 C.3     1  UNL1        0.1234
     11 C          61.9954   86.5790   10.4150 C.ar    1  UNL1       -0.0022
     12 C          62.4064   86.5346    8.9731 C.ar    1  UNL1       -0.0026
     13 C          63.1496   85.3451    8.4414 C.ar    1  UNL1       -0.0003
     14 C          63.4817   84.1999    9.3516 C.ar    1  UNL1       -0.0000
     15 C          63.0706   84.2443   10.7934 C.ar    1  UNL1       -0.0003
     16 C          62.3275   85.4338   11.3252 C.ar    1  UNL1       -0.0026
     17 O          59.3625   89.6311    7.9956 O.3     1  UNL1       -0.4289
     18 C          59.3495   89.3869    6.5157 C.3     1  UNL1        0.2447
     19 C          59.2023   90.5392    5.5667 C.ar    1  UNL1        0.0714
     20 C          57.9175   91.2217    5.2011 C.ar    1  UNL1        0.1053
     21 N          58.2352   92.3155    4.2251 N.ar    1  UNL1       -0.2350
     22 C          59.7163   92.3091    3.9875 C.ar    1  UNL1        0.1343
     23 S          60.3139   91.2113    4.8166 S.2     1  UNL1       -0.0652
     24 C          65.7177   91.5719   12.1765 C.3     1  UNL1        0.1202
     25 C          66.2603   92.6835   11.3280 C.ar    1  UNL1       -0.0023
     26 C          67.1764   92.3733   10.1816 C.ar    1  UNL1       -0.0026
     27 C          67.7190   93.4850    9.3331 C.ar    1  UNL1       -0.0003
     28 C          67.3454   94.9068    9.6311 C.ar    1  UNL1       -0.0000
     29 C          66.4292   95.2169   10.7776 C.ar    1  UNL1       -0.0003
     30 C          65.8867   94.1053   11.6260 C.ar    1  UNL1       -0.0026
     31 C          64.4033   90.1147   14.4457 C.3     1  UNL1        0.1499
     32 N          63.4297   86.9827   16.6800 N.am    1  UNL1       -0.2567
     33 C          62.5392   86.6506   17.8405 C.3     1  UNL1        0.1168
     34 C          63.4713   88.3826   16.1430 C.2     1  UNL1        0.3046
     35 O          62.6223   89.4506   16.7666 O.2     1  UNL1       -0.2526
     36 N          64.3618   88.7147   14.9826 N.am    1  UNL1       -0.2824
     37 H          64.9190   88.0138   14.5733 H       1  UNL1        0.1514
     38 C          64.2787   85.9148   16.0565 C.3     1  UNL1        0.1413
     39 C          63.3065   82.6994   14.1117 C.ar    1  UNL1        0.0875
     40 N          64.3345   83.6840   14.5849 N.ar    1  UNL1       -0.2453
     41 C          63.6324   84.7356   15.3918 C.ar    1  UNL1        0.0858
     42 C          62.1704   84.4009   15.4173 C.ar    1  UNL1        0.0530
     43 S          61.9690   83.1425   14.6262 S.2     1  UNL1       -0.0705
     44 C          62.7844   80.2282   13.5030 C.3     1  UNL1        0.0069
     45 C          63.5699   81.4850   13.2716 C.3     1  UNL1        0.0465
     46 C          64.6187   81.5273   12.2000 C.3     1  UNL1        0.0069
     47 C          65.2388   91.1559   15.1297 C.3     1  UNL1        0.0270
     48 C          66.7108   91.2373   14.8525 C.3     1  UNL1        0.0022
     49 C          64.6024   92.1156   16.0910 C.3     1  UNL1        0.0022
@<TRIPOS>BOND
     1    44    45    1
     2    45    46    1
     3    45    39    1
     4    39    40   ar
     5    40    41   ar
     6    41    38    1
     7    38    32    1
     8    32    33    1
     9    32    34   am
    10    34    35    2
    11    34    36   am
    12    31    36    1
    13    31     1    1
    14     1     2    2
    15     1     3   am
    16     3     4    1
    17     4     5    1
    18     5     6    1
    19     6     7    1
    20     7    10    1
    21    10    11    1
    22    11    12   ar
    23    12    13   ar
    24    13    14   ar
    25    14    15   ar
    26    15    16   ar
    27     7     8   am
    28     8     9    2
    29     8    17    1
    30    17    18    1
    31    18    19    1
    32    19    20   ar
    33    20    21   ar
    34    21    22   ar
    35    22    23   ar
    36     3    24    1
    37    24    25    1
    38    25    26   ar
    39    26    27   ar
    40    27    28   ar
    41    28    29   ar
    42    29    30   ar
    43    31    47    1
    44    47    48    1
    45    47    49    1
    46    41    42   ar
    47    42    43   ar
    48    43    39   ar
    49    16    11   ar
    50    23    19   ar
    51    30    25   ar
    52    36    37    1
@<TRIPOS>MOLECULE
*****
 49 52 0 0 0
SMALL
GASTEIGER

@<TRIPOS>ATOM
      1 C          60.5229   88.9127    9.4855 C.2     1  UNL1        0.2438
      2 O          59.7781   89.9975   10.2057 O.2     1  UNL1       -0.2731
      3 N          61.6588   88.2055   10.1633 N.am    1  UNL1       -0.2740
      4 C          62.0501   88.5832   11.5614 C.3     1  UNL1        0.0955
      5 C          63.1188   89.6106   11.7894 C.3     1  UNL1        0.0431
      6 C          62.9411   90.6544   12.8519 C.3     1  UNL1        0.0988
      7 N          63.9165   90.7417   13.9882 N.am    1  UNL1       -0.2418
      8 C          65.2660   91.3599   13.7725 C.2     1  UNL1        0.4055
      9 O          66.2413   91.4471   14.9087 O.2     1  UNL1       -0.2262
     10 C          63.5422   90.2106   15.3402 C.3     1  UNL1        0.1234
     11 C          63.6317   88.7395   15.6193 C.ar    1  UNL1       -0.0022
     12 C          64.3268   87.8327   14.6475 C.ar    1  UNL1       -0.0026
     13 C          64.4162   86.3616   14.9266 C.ar    1  UNL1       -0.0003
     14 C          63.8105   85.7974   16.1775 C.ar    1  UNL1       -0.0000
     15 C          63.1154   86.7042   17.1493 C.ar    1  UNL1       -0.0003
     16 C          63.0260   88.1752   16.8702 C.ar    1  UNL1       -0.0026
     17 O          65.6402   91.8909   12.4204 O.3     1  UNL1       -0.4289
     18 C          65.9665   93.3450   12.2498 C.3     1  UNL1        0.2447
     19 C          66.6151   93.8248   10.9852 C.ar    1  UNL1        0.0714
     20 C          67.3468   92.9723    9.9913 C.ar    1  UNL1        0.1053
     21 N          67.8298   93.8618    8.8843 N.ar    1  UNL1       -0.2350
     22 C          67.3965   95.2642    9.1940 C.ar    1  UNL1        0.1343
     23 S          66.6458   95.2412   10.4924 S.2     1  UNL1       -0.0652
     24 C          62.4035   87.1207    9.4432 C.3     1  UNL1        0.1202
     25 C          62.6833   85.8182   10.1325 C.ar    1  UNL1       -0.0023
     26 C          62.3083   85.6364   11.5734 C.ar    1  UNL1       -0.0026
     27 C          62.5880   84.3338   12.2626 C.ar    1  UNL1       -0.0003
     28 C          63.2428   83.2130   11.5110 C.ar    1  UNL1       -0.0000
     29 C          63.6178   83.3948   10.0701 C.ar    1  UNL1       -0.0003
     30 C          63.3381   84.6974    9.3808 C.ar    1  UNL1       -0.0026
     31 C          60.1316   88.5351    8.0876 C.3     1  UNL1        0.1499
     32 N          58.9941   91.0614    5.2461 N.am    1  UNL1       -0.2567
     33 C          57.7303   91.5475    4.6005 C.3     1  UNL1        0.1168
     34 C          58.9310   90.0413    6.3441 C.2     1  UNL1        0.3046
     35 O          57.6042   89.5074    6.7964 O.2     1  UNL1       -0.2526
     36 N          60.1947   89.5552    6.9896 N.am    1  UNL1       -0.2824
     37 H          61.0655   89.9056    6.6927 H       1  UNL1        0.1514
     38 C          60.3208   91.5953    4.7938 C.3     1  UNL1        0.1413
     39 C          59.8878   93.4523    1.4129 C.ar    1  UNL1        0.0875
     40 N          59.3170   92.8867    2.6795 N.ar    1  UNL1       -0.2453
     41 C          60.4411   92.2752    3.4621 C.ar    1  UNL1        0.0858
     42 C          61.7067   92.4628    2.6791 C.ar    1  UNL1        0.0530
     43 S          61.3647   93.1903    1.4127 S.2     1  UNL1       -0.0705
     44 C          59.2426   95.6420    0.1725 C.3     1  UNL1        0.0069
     45 C          59.1170   94.1562    0.3358 C.3     1  UNL1        0.0465
     46 C          58.2205   93.3744   -0.5781 C.3     1  UNL1        0.0069
     47 C          59.6773   87.1374    7.7876 C.3     1  UNL1        0.0270
     48 C          58.3022   86.6931    8.1899 C.3     1  UNL1        0.0022
     49 C          60.5979   86.1840    7.0852 C.3     1  UNL1        0.0022
@<TRIPOS>BOND
     1    44    45    1
     2    45    46    1
     3    45    39    1
     4    39    40   ar
     5    40    41   ar
     6    41    38    1
     7    38    32    1
     8    32    33    1
     9    32    34   am
    10    34    35    2
    11    34    36   am
    12    31    36    1
    13    31     1    1
    14     1     2    2
    15     1     3   am
    16     3     4    1
    17     4     5    1
    18     5     6    1
    19     6     7    1
    20     7    10    1
    21    10    11    1
    22    11    12   ar
    23    12    13   ar
    24    13    14   ar
    25    14    15   ar
    26    15    16   ar
    27     7     8   am
    28     8     9    2
    29     8    17    1
    30    17    18    1
    31    18    19    1
    32    19    20   ar
    33    20    21   ar
    34    21    22   ar
    35    22    23   ar
    36     3    24    1
    37    24    25    1
    38    25    26   ar
    39    26    27   ar
    40    27    28   ar
    41    28    29   ar
    42    29    30   ar
    43    31    47    1
    44    47    48    1
    45    47    49    1
    46    41    42   ar
    47    42    43   ar
    48    43    39   ar
    49    16    11   ar
    50    23    19   ar
    51    30    25   ar
    52    36    37    1
@<TRIPOS>MOLECULE
*****
 49 52 0 0 0
SMALL
GASTEIGER

@<TRIPOS>ATOM
      1 C          63.1399   88.4291   12.5239 C.2     1  UNL1        0.2438
      2 O          63.3239   87.9185   13.9223 O.2     1  UNL1       -0.2731
      3 N          62.7136   87.4917   11.4332 N.am    1  UNL1       -0.2740
      4 C          62.4714   86.0437   11.7409 C.3     1  UNL1        0.0955
      5 C          63.2672   84.9842   11.0380 C.3     1  UNL1        0.0431
      6 C          64.0716   83.9990   11.8332 C.3     1  UNL1        0.0988
      7 N          63.3793   83.0151   12.7292 N.am    1  UNL1       -0.2418
      8 C          63.8413   82.8359   14.1449 C.2     1  UNL1        0.4055
      9 O          63.1491   81.8520   15.0409 O.2     1  UNL1       -0.2262
     10 C          62.2250   82.2104   12.2094 C.3     1  UNL1        0.1234
     11 C          62.4660   80.8629   11.5961 C.ar    1  UNL1       -0.0022
     12 C          62.3810   79.6275   12.4426 C.ar    1  UNL1       -0.0026
     13 C          62.6219   78.2801   11.8293 C.ar    1  UNL1       -0.0003
     14 C          62.9478   78.1679   10.3694 C.ar    1  UNL1       -0.0000
     15 C          63.0327   79.4032    9.5229 C.ar    1  UNL1       -0.0003
     16 C          62.7918   80.7507   10.1362 C.ar    1  UNL1       -0.0026
     17 O          64.9956   83.6406   14.6647 O.3     1  UNL1       -0.4289
     18 C          64.7991   85.0805   15.0361 C.3     1  UNL1        0.2447
     19 C          63.6460   85.4795   15.9084 C.ar    1  UNL1        0.0714
     20 C          62.2302   85.0038   15.7704 C.ar    1  UNL1        0.1053
     21 N          61.4153   85.6545   16.8486 N.ar    1  UNL1       -0.2350
     22 C          62.3276   86.5325   17.6530 C.ar    1  UNL1        0.1343
     23 S          63.7062   86.4244   17.0719 S.2     1  UNL1       -0.0652
     24 C          62.5296   88.0022   10.0348 C.3     1  UNL1        0.1202
     25 C          61.3779   87.5176    9.2050 C.ar    1  UNL1       -0.0023
     26 C          61.5191   86.2725    8.3805 C.ar    1  UNL1       -0.0026
     27 C          60.3674   85.7879    7.5506 C.ar    1  UNL1       -0.0003
     28 C          59.0745   86.5483    7.5452 C.ar    1  UNL1       -0.0000
     29 C          58.9333   87.7934    8.3697 C.ar    1  UNL1       -0.0003
     30 C          60.0850   88.2780    9.1996 C.ar    1  UNL1       -0.0026
     31 C          63.3821   89.8770   12.2162 C.3     1  UNL1        0.1499
     32 N          65.6555   91.8349   14.8140 N.am    1  UNL1       -0.2567
     33 C          65.5724   92.3777   16.2099 C.3     1  UNL1        0.1168
     34 C          64.4773   91.1274   14.2130 C.2     1  UNL1        0.3046
     35 O          63.2159   90.9626   15.0080 O.2     1  UNL1       -0.2526
     36 N          64.5604   90.5846   12.8172 N.am    1  UNL1       -0.2824
     37 H          65.3882   90.6927   12.2954 H       1  UNL1        0.1514
     38 C          66.9168   91.9997   14.0191 C.3     1  UNL1        0.1413
     39 C          67.3396   93.5108   10.4689 C.ar    1  UNL1        0.0875
     40 N          67.6364   92.4469   11.4838 N.ar    1  UNL1       -0.2453
     41 C          66.9027   92.7924   12.7457 C.ar    1  UNL1        0.0858
     42 C          66.1524   94.0698   12.5107 C.ar    1  UNL1        0.0530
     43 S          66.4224   94.5138   11.1035 S.2     1  UNL1       -0.0705
     44 C          67.5480   94.7356    8.1872 C.3     1  UNL1        0.0069
     45 C          67.8672   93.5625    9.0658 C.3     1  UNL1        0.0465
     46 C          68.7142   92.4411    8.5411 C.3     1  UNL1        0.0069
     47 C          62.4461   90.6174   11.3076 C.3     1  UNL1        0.0270
     48 C          62.9827   91.3504   10.1139 C.3     1  UNL1        0.0022
     49 C          60.9735   90.6250   11.5926 C.3     1  UNL1        0.0022
@<TRIPOS>BOND
     1    44    45    1
     2    45    46    1
     3    45    39    1
     4    39    40   ar
     5    40    41   ar
     6    41    38    1
     7    38    32    1
     8    32    33    1
     9    32    34   am
    10    34    35    2
    11    34    36   am
    12    31    36    1
    13    31     1    1
    14     1     2    2
    15     1     3   am
    16     3     4    1
    17     4     5    1
    18     5     6    1
    19     6     7    1
    20     7    10    1
    21    10    11    1
    22    11    12   ar
    23    12    13   ar
    24    13    14   ar
    25    14    15   ar
    26    15    16   ar
    27     7     8   am
    28     8     9    2
    29     8    17    1
    30    17    18    1
    31    18    19    1
    32    19    20   ar
    33    20    21   ar
    34    21    22   ar
    35    22    23   ar
    36     3    24    1
    37    24    25    1
    38    25    26   ar
    39    26    27   ar
    40    27    28   ar
    41    28    29   ar
    42    29    30   ar
    43    31    47    1
    44    47    48    1
    45    47    49    1
    46    41    42   ar
    47    42    43   ar
    48    43    39   ar
    49    16    11   ar
    50    23    19   ar
    51    30    25   ar
    52    36    37    1
@<TRIPOS>MOLECULE
*****
 49 52 0 0 0
SMALL
GASTEIGER

@<TRIPOS>ATOM
      1 C          60.3391   89.0317    9.5191 C.2     1  UNL1        0.2438
      2 O          59.4338   89.9964   10.2262 O.2     1  UNL1       -0.2731
      3 N          61.5320   88.4642   10.2296 N.am    1  UNL1       -0.2740
      4 C          61.8197   88.8614   11.6472 C.3     1  UNL1        0.0955
      5 C          63.1612   89.4253   12.0106 C.3     1  UNL1        0.0431
      6 C          63.8680   88.9444   13.2431 C.3     1  UNL1        0.0988
      7 N          63.8272   89.7638   14.4990 N.am    1  UNL1       -0.2418
      8 C          63.4841   89.1148   15.8071 C.2     1  UNL1        0.4055
      9 O          63.4433   89.9341   17.0629 O.2     1  UNL1       -0.2262
     10 C          64.1295   91.2321   14.4467 C.3     1  UNL1        0.1234
     11 C          65.5275   91.7191   14.6885 C.ar    1  UNL1       -0.0022
     12 C          65.8718   92.3996   15.9801 C.ar    1  UNL1       -0.0026
     13 C          67.2698   92.8866   16.2219 C.ar    1  UNL1       -0.0003
     14 C          68.3235   92.6931   15.1720 C.ar    1  UNL1       -0.0000
     15 C          67.9792   92.0125   13.8804 C.ar    1  UNL1       -0.0003
     16 C          66.5812   91.5255   13.6386 C.ar    1  UNL1       -0.0026
     17 O          63.1818   87.6465   15.8593 O.3     1  UNL1       -0.4289
     18 C          64.2518   86.6483   15.5293 C.3     1  UNL1        0.2447
     19 C          63.8978   85.2022   15.3466 C.ar    1  UNL1        0.0714
     20 C          62.6352   84.5382   15.8103 C.ar    1  UNL1        0.1053
     21 N          62.7013   83.0918   15.4184 N.ar    1  UNL1       -0.2350
     22 C          64.0048   82.8618   14.7125 C.ar    1  UNL1        0.1343
     23 S          64.7442   84.1662   14.6682 S.2     1  UNL1       -0.0652
     24 C          62.4372   87.4996    9.5226 C.3     1  UNL1        0.1202
     25 C          62.6300   86.1152   10.0669 C.ar    1  UNL1       -0.0023
     26 C          62.1756   85.7863   11.4581 C.ar    1  UNL1       -0.0026
     27 C          62.3684   84.4020   12.0025 C.ar    1  UNL1       -0.0003
     28 C          63.0154   83.3464   11.1557 C.ar    1  UNL1       -0.0000
     29 C          63.4698   83.6753    9.7645 C.ar    1  UNL1       -0.0003
     30 C          63.2770   85.0596    9.2202 C.ar    1  UNL1       -0.0026
     31 C          60.0514   88.6346    8.1015 C.3     1  UNL1        0.1499
     32 N          58.9925   91.1402    5.2118 N.am    1  UNL1       -0.2567
     33 C          57.7484   91.6094    4.5172 C.3     1  UNL1        0.1168
     34 C          58.9000   90.1220    6.3094 C.2     1  UNL1        0.3046
     35 O          57.5634   89.5730    6.7124 O.2     1  UNL1       -0.2526
     36 N          60.1439   89.6528    7.0039 N.am    1  UNL1       -0.2824
     37 H          61.0211   90.0131    6.7394 H       1  UNL1        0.1514
     38 C          60.3289   91.6892    4.8087 C.3     1  UNL1        0.1413
     39 C          60.0338   93.6199    1.4545 C.ar    1  UNL1        0.0875
     40 N          59.4360   93.1242    2.7378 N.ar    1  UNL1       -0.2453
     41 C          60.4937   92.3593    3.4769 C.ar    1  UNL1        0.0858
     42 C          61.7452   92.3824    2.6503 C.ar    1  UNL1        0.0530
     43 S          61.4610   93.1614    1.4004 S.2     1  UNL1       -0.0705
     44 C          59.4933   95.9221    0.3786 C.3     1  UNL1        0.0069
     45 C          59.3282   94.4315    0.4088 C.3     1  UNL1        0.0465
     46 C          58.4575   93.7526   -0.6066 C.3     1  UNL1        0.0069
     47 C          59.6712   87.2194    7.7816 C.3     1  UNL1        0.0270
     48 C          58.3254   86.6946    8.1859 C.3     1  UNL1        0.0022
     49 C          60.6368   86.3288    7.0574 C.3     1  UNL1        0.0022
@<TRIPOS>BOND
     1    44    45    1
     2    45    46    1
     3    45    39    1
     4    39    40   ar
     5    40    41   ar
     6    41    38    1
     7    38    32    1
     8    32    33    1
     9    32    34   am
    10    34    35    2
    11    34    36   am
    12    31    36    1
    13    31     1    1
    14     1     2    2
    15     1     3   am
    16     3     4    1
    17     4     5    1
    18     5     6    1
    19     6     7    1
    20     7    10    1
    21    10    11    1
    22    11    12   ar
    23    12    13   ar
    24    13    14   ar
    25    14    15   ar
    26    15    16   ar
    27     7     8   am
    28     8     9    2
    29     8    17    1
    30    17    18    1
    31    18    19    1
    32    19    20   ar
    33    20    21   ar
    34    21    22   ar
    35    22    23   ar
    36     3    24    1
    37    24    25    1
    38    25    26   ar
    39    26    27   ar
    40    27    28   ar
    41    28    29   ar
    42    29    30   ar
    43    31    47    1
    44    47    48    1
    45    47    49    1
    46    41    42   ar
    47    42    43   ar
    48    43    39   ar
    49    16    11   ar
    50    23    19   ar
    51    30    25   ar
    52    36    37    1
@<TRIPOS>MOLECULE
*****
 49 52 0 0 0
SMALL
GASTEIGER

@<TRIPOS>ATOM
      1 C          60.9119   88.1508   11.9247 C.2     1  UNL1        0.2438
      2 O          60.2577   87.8164   13.2325 O.2     1  UNL1       -0.2731
      3 N          61.4496   87.0547   11.0532 N.am    1  UNL1       -0.2740
      4 C          61.3333   85.6242   11.4896 C.3     1  UNL1        0.0955
      5 C          62.4506   84.9806   12.2558 C.3     1  UNL1        0.0431
      6 C          62.3141   84.7534   13.7322 C.3     1  UNL1        0.0988
      7 N          63.5298   84.4651   14.5623 N.am    1  UNL1       -0.2418
      8 C          63.7358   83.0964   15.1406 C.2     1  UNL1        0.4055
      9 O          64.9514   82.8081   15.9706 O.2     1  UNL1       -0.2262
     10 C          64.5395   85.5454   14.8140 C.3     1  UNL1        0.1234
     11 C          64.1001   86.8682   15.3683 C.ar    1  UNL1       -0.0022
     12 C          64.3889   88.1313   14.6126 C.ar    1  UNL1       -0.0026
     13 C          63.9496   89.4540   15.1669 C.ar    1  UNL1       -0.0003
     14 C          63.2215   89.5137   16.4770 C.ar    1  UNL1       -0.0000
     15 C          62.9327   88.2506   17.2327 C.ar    1  UNL1       -0.0003
     16 C          63.3720   86.9279   16.6784 C.ar    1  UNL1       -0.0026
     17 O          62.7260   82.0161   14.8888 O.3     1  UNL1       -0.4289
     18 C          62.9385   81.0361   13.7732 C.3     1  UNL1        0.2447
     19 C          63.4622   81.5087   12.4494 C.ar    1  UNL1        0.0714
     20 C          64.7370   82.2667   12.2254 C.ar    1  UNL1        0.1053
     21 N          64.8658   82.5327   10.7548 N.ar    1  UNL1       -0.2350
     22 C          63.6705   81.9390   10.0699 C.ar    1  UNL1        0.1343
     23 S          62.8031   81.3062   11.1173 S.2     1  UNL1       -0.0652
     24 C          62.1038   87.3890    9.7454 C.3     1  UNL1        0.1202
     25 C          61.9795   86.4493    8.5828 C.ar    1  UNL1       -0.0023
     26 C          60.6944   86.3745    7.8130 C.ar    1  UNL1       -0.0026
     27 C          60.5701   85.4348    6.6504 C.ar    1  UNL1       -0.0003
     28 C          61.7311   84.5700    6.2577 C.ar    1  UNL1       -0.0000
     29 C          63.0162   84.6449    7.0275 C.ar    1  UNL1       -0.0003
     30 C          63.1405   85.5846    8.1901 C.ar    1  UNL1       -0.0026
     31 C          61.0282   89.5811   11.4883 C.3     1  UNL1        0.1499
     32 N          64.2679   91.8692   11.3510 N.am    1  UNL1       -0.2567
     33 C          65.1643   92.5056   10.3303 C.3     1  UNL1        0.1168
     34 C          63.0962   91.0433   10.9093 C.2     1  UNL1        0.3046
     35 O          62.8209   90.8537    9.4470 O.2     1  UNL1       -0.2526
     36 N          62.1999   90.4070   11.9300 N.am    1  UNL1       -0.2824
     37 H          62.3806   90.5315   12.8897 H       1  UNL1        0.1514
     38 C          64.5433   92.0589   12.8132 C.3     1  UNL1        0.1413
     39 C          67.8890   92.5703   14.7133 C.ar    1  UNL1        0.0875
     40 N          66.3924   92.6506   14.6505 N.ar    1  UNL1       -0.2453
     41 C          65.9576   92.1524   13.3041 C.ar    1  UNL1        0.0858
     42 C          67.1854   91.7643   12.5348 C.ar    1  UNL1        0.0530
     43 S          68.3791   92.0225   13.4057 S.2     1  UNL1       -0.0705
     44 C          69.1656   94.3980   16.0474 C.3     1  UNL1        0.0069
     45 C          68.7451   92.9680   15.8790 C.3     1  UNL1        0.0465
     46 C          69.1806   91.9357   16.8764 C.3     1  UNL1        0.0069
     47 C          59.9729   90.1856   10.6104 C.3     1  UNL1        0.0270
     48 C          59.9035   89.8164    9.1581 C.3     1  UNL1        0.0022
     49 C          58.9869   91.1593   11.1846 C.3     1  UNL1        0.0022
@<TRIPOS>BOND
     1    44    45    1
     2    45    46    1
     3    45    39    1
     4    39    40   ar
     5    40    41   ar
     6    41    38    1
     7    38    32    1
     8    32    33    1
     9    32    34   am
    10    34    35    2
    11    34    36   am
    12    31    36    1
    13    31     1    1
    14     1     2    2
    15     1     3   am
    16     3     4    1
    17     4     5    1
    18     5     6    1
    19     6     7    1
    20     7    10    1
    21    10    11    1
    22    11    12   ar
    23    12    13   ar
    24    13    14   ar
    25    14    15   ar
    26    15    16   ar
    27     7     8   am
    28     8     9    2
    29     8    17    1
    30    17    18    1
    31    18    19    1
    32    19    20   ar
    33    20    21   ar
    34    21    22   ar
    35    22    23   ar
    36     3    24    1
    37    24    25    1
    38    25    26   ar
    39    26    27   ar
    40    27    28   ar
    41    28    29   ar
    42    29    30   ar
    43    31    47    1
    44    47    48    1
    45    47    49    1
    46    41    42   ar
    47    42    43   ar
    48    43    39   ar
    49    16    11   ar
    50    23    19   ar
    51    30    25   ar
    52    36    37    1
@<TRIPOS>MOLECULE
*****
 49 52 0 0 0
SMALL
GASTEIGER

@<TRIPOS>ATOM
      1 C          62.3756   87.5463   11.6654 C.2     1  UNL1        0.2438
      2 O          63.5972   88.0554   12.3716 O.2     1  UNL1       -0.2731
      3 N          61.2206   88.4676   11.4062 N.am    1  UNL1       -0.2740
      4 C          61.2872   89.8979   11.8533 C.3     1  UNL1        0.0955
      5 C          62.2528   90.8431   11.2021 C.3     1  UNL1        0.0431
      6 C          63.7055   90.8051   11.5737 C.3     1  UNL1        0.0988
      7 N          64.4762   92.0838   11.7189 N.am    1  UNL1       -0.2418
      8 C          65.0048   92.4924   13.0619 C.2     1  UNL1        0.4055
      9 O          65.7754   93.7711   13.2073 O.2     1  UNL1       -0.2262
     10 C          64.7183   92.9538   10.5213 C.3     1  UNL1        0.1234
     11 C          66.1191   93.2019   10.0454 C.ar    1  UNL1       -0.0022
     12 C          66.5016   94.5500    9.5102 C.ar    1  UNL1       -0.0026
     13 C          67.9023   94.7981    9.0344 C.ar    1  UNL1       -0.0003
     14 C          68.9204   93.6982    9.0936 C.ar    1  UNL1       -0.0000
     15 C          68.5379   92.3501    9.6288 C.ar    1  UNL1       -0.0003
     16 C          67.1372   92.1020   10.1046 C.ar    1  UNL1       -0.0026
     17 O          64.7626   91.6224   14.2597 O.3     1  UNL1       -0.4289
     18 C          65.9228   91.1012   15.0549 C.3     1  UNL1        0.2447
     19 C          67.2078   91.8735   15.1010 C.ar    1  UNL1        0.0714
     20 C          68.3172   91.8000   14.0940 C.ar    1  UNL1        0.1053
     21 N          69.4041   92.7359   14.5327 N.ar    1  UNL1       -0.2350
     22 C          68.9666   93.3879   15.8109 C.ar    1  UNL1        0.1343
     23 S          67.6092   92.8549   16.1620 S.2     1  UNL1       -0.0652
     24 C          59.9991   87.9586   10.7001 C.3     1  UNL1        0.1202
     25 C          59.7606   88.3148    9.2626 C.ar    1  UNL1       -0.0023
     26 C          60.2052   89.6473    8.7365 C.ar    1  UNL1       -0.0026
     27 C          59.9668   90.0035    7.2990 C.ar    1  UNL1       -0.0003
     28 C          59.2838   89.0273    6.3878 C.ar    1  UNL1       -0.0000
     29 C          58.8392   87.6949    6.9139 C.ar    1  UNL1       -0.0003
     30 C          59.0776   87.3386    8.3514 C.ar    1  UNL1       -0.0026
     31 C          62.3091   86.1160   11.2183 C.3     1  UNL1        0.1499
     32 N          62.6980   82.5146   12.8395 N.am    1  UNL1       -0.2567
     33 C          63.0744   81.1214   12.4301 C.3     1  UNL1        0.1168
     34 C          62.6917   83.6188   11.8243 C.2     1  UNL1        0.3046
     35 O          63.0619   83.3298   10.3996 O.2     1  UNL1       -0.2526
     36 N          62.3154   85.0119   12.2336 N.am    1  UNL1       -0.2824
     37 H          62.0724   85.2015   13.1686 H       1  UNL1        0.1514
     38 C          62.3278   82.8035   14.2641 C.3     1  UNL1        0.1413
     39 C          63.2515   85.9250   16.3780 C.ar    1  UNL1        0.0875
     40 N          62.2435   84.9340   15.8763 N.ar    1  UNL1       -0.2453
     41 C          62.9544   83.9623   14.9816 C.ar    1  UNL1        0.0858
     42 C          64.4017   84.3528   14.9304 C.ar    1  UNL1        0.0530
     43 S          64.5854   85.5658   15.7934 S.2     1  UNL1       -0.0705
     44 C          63.1076   88.4833   16.8073 C.3     1  UNL1        0.0069
     45 C          62.9743   87.0736   17.3021 C.3     1  UNL1        0.0465
     46 C          62.5639   86.8124   18.7211 C.3     1  UNL1        0.0069
     47 C          62.2364   85.7900    9.7561 C.3     1  UNL1        0.0270
     48 C          63.4129   86.0646    8.8669 C.3     1  UNL1        0.0022
     49 C          60.9872   85.1892    9.1828 C.3     1  UNL1        0.0022
@<TRIPOS>BOND
     1    44    45    1
     2    45    46    1
     3    45    39    1
     4    39    40   ar
     5    40    41   ar
     6    41    38    1
     7    38    32    1
     8    32    33    1
     9    32    34   am
    10    34    35    2
    11    34    36   am
    12    31    36    1
    13    31     1    1
    14     1     2    2
    15     1     3   am
    16     3     4    1
    17     4     5    1
    18     5     6    1
    19     6     7    1
    20     7    10    1
    21    10    11    1
    22    11    12   ar
    23    12    13   ar
    24    13    14   ar
    25    14    15   ar
    26    15    16   ar
    27     7     8   am
    28     8     9    2
    29     8    17    1
    30    17    18    1
    31    18    19    1
    32    19    20   ar
    33    20    21   ar
    34    21    22   ar
    35    22    23   ar
    36     3    24    1
    37    24    25    1
    38    25    26   ar
    39    26    27   ar
    40    27    28   ar
    41    28    29   ar
    42    29    30   ar
    43    31    47    1
    44    47    48    1
    45    47    49    1
    46    41    42   ar
    47    42    43   ar
    48    43    39   ar
    49    16    11   ar
    50    23    19   ar
    51    30    25   ar
    52    36    37    1
