@<TRIPOS>MOLECULE
*****
 32 34 0 0 0
SMALL
GASTEIGER

@<TRIPOS>ATOM
      1 C          64.1654   90.6473   13.2269 C.ar    1  UNL1        0.1391
      2 C          64.7704   89.9494   14.4088 C.ar    1  UNL1        0.0382
      3 C          64.6244   88.4640   14.5582 C.ar    1  UNL1        0.0180
      4 C          63.8734   87.6766   13.5257 C.ar    1  UNL1        0.0544
      5 C          63.2684   88.3745   12.3439 C.ar    1  UNL1        0.0180
      6 C          63.4144   89.8599   12.1945 C.ar    1  UNL1        0.0382
      7 N          63.7274   86.1912   13.6752 N.am    1  UNL1       -0.2537
      8 C          62.8398   85.4268   12.7382 C.2     1  UNL1        0.2536
      9 O          62.0983   86.1478   11.6517 O.2     1  UNL1       -0.2695
     10 C          62.6938   83.9414   12.8876 C.ar    1  UNL1        0.0645
     11 C          62.0727   83.3699   14.1275 C.ar    1  UNL1        0.0062
     12 C          61.9267   81.8845   14.2770 C.ar    1  UNL1        0.0116
     13 C          62.4018   80.9707   13.1864 C.ar    1  UNL1        0.0585
     14 CL         62.2557   79.4853   13.3358 Cl      1  UNL1       -0.0822
     15 C          63.0229   81.5423   11.9464 C.ar    1  UNL1        0.0229
     16 C          63.1689   83.0276   11.7970 C.ar    1  UNL1        0.0629
     17 CL         63.7900   83.5992   10.5571 Cl      1  UNL1       -0.0821
     18 C          64.4689   85.4702   14.7616 C.3     1  UNL1        0.1153
     19 C          64.0047   85.5760   16.1840 C.3     1  UNL1        0.0873
     20 N          62.5730   85.9087   16.4830 N.3     1  UNL1       -0.3197
     21 H          62.3711   86.8572   16.1666 H       1  UNL1        0.1189
     22 H          62.4116   85.8440   17.4880 H       1  UNL1        0.1189
     23 O          64.3114   92.1327   13.0775 O.3     1  UNL1       -0.4706
     24 C          65.6668   92.7671   13.1791 C.3     1  UNL1        0.2320
     25 C          68.5677   92.1805    8.9082 C.3     1  UNL1        0.0310
     26 C          67.7656   93.0575    9.8234 C.ar    1  UNL1       -0.0224
     27 C          67.6118   94.5180    9.5183 C.ar    1  UNL1       -0.0085
     28 C          66.8096   95.3950   10.4335 C.ar    1  UNL1       -0.0224
     29 C          66.6558   96.8556   10.1284 C.3     1  UNL1        0.0310
     30 C          66.1613   94.8114   11.6537 C.ar    1  UNL1       -0.0050
     31 C          66.3151   93.3508   11.9588 C.ar    1  UNL1        0.0205
     32 C          67.1173   92.4739   11.0436 C.ar    1  UNL1       -0.0050
@<TRIPOS>BOND
     1    25    26    1
     2    26    27   ar
     3    27    28   ar
     4    28    29    1
     5    28    30   ar
     6    30    31   ar
     7    31    24    1
     8    24    23    1
     9    23     1    1
    10     1     2   ar
    11     2     3   ar
    12     3     4   ar
    13     4     7    1
    14     7    18    1
    15    18    19    1
    16    19    20    1
    17     7     8   am
    18     8     9    2
    19     8    10    1
    20    10    11   ar
    21    11    12   ar
    22    12    13   ar
    23    13    14    1
    24    13    15   ar
    25    15    16   ar
    26    16    17    1
    27     4     5   ar
    28     5     6   ar
    29    31    32   ar
    30    32    26   ar
    31     6     1   ar
    32    16    10   ar
    33    20    21    1
    34    20    22    1
@<TRIPOS>MOLECULE
*****
 32 34 0 0 0
SMALL
GASTEIGER

@<TRIPOS>ATOM
      1 C          64.2002   90.8783   13.1827 C.ar    1  UNL1        0.1391
      2 C          64.6278   89.8976   14.2341 C.ar    1  UNL1        0.0382
      3 C          64.2666   88.4481   14.0988 C.ar    1  UNL1        0.0180
      4 C          63.4778   87.9793   12.9122 C.ar    1  UNL1        0.0544
      5 C          63.0502   88.9600   11.8609 C.ar    1  UNL1        0.0180
      6 C          63.4114   90.4095   11.9961 C.ar    1  UNL1        0.0382
      7 N          63.1166   86.5296   12.7770 N.am    1  UNL1       -0.2537
      8 C          63.8111   85.5019   13.6204 C.2     1  UNL1        0.2536
      9 O          64.8668   85.9237   14.5990 O.2     1  UNL1       -0.2695
     10 C          63.4499   84.0523   13.4853 C.ar    1  UNL1        0.0645
     11 C          64.0922   83.2157   12.4188 C.ar    1  UNL1        0.0062
     12 C          63.7311   81.7661   12.2835 C.ar    1  UNL1        0.0116
     13 C          62.7276   81.1531   13.2149 C.ar    1  UNL1        0.0585
     14 CL         62.3664   79.7036   13.0797 Cl      1  UNL1       -0.0822
     15 C          62.0853   81.9898   14.2814 C.ar    1  UNL1        0.0229
     16 C          62.4464   83.4394   14.4166 C.ar    1  UNL1        0.0629
     17 CL         61.8041   84.2760   15.4831 Cl      1  UNL1       -0.0821
     18 C          62.0609   86.1079   11.7984 C.3     1  UNL1        0.1153
     19 C          62.4468   85.7057   10.4059 C.3     1  UNL1        0.0873
     20 N          62.1282   86.6064    9.2495 N.3     1  UNL1       -0.3197
     21 H          61.1165   86.6680    9.1352 H       1  UNL1        0.1189
     22 H          62.5441   86.2275    8.3987 H       1  UNL1        0.1189
     23 O          64.5614   92.3279   13.3179 O.3     1  UNL1       -0.4706
     24 C          65.9963   92.7551   13.2254 C.3     1  UNL1        0.2320
     25 C          68.6395   92.2130    8.7847 C.3     1  UNL1        0.0310
     26 C          67.8458   93.0676    9.7280 C.ar    1  UNL1       -0.0224
     27 C          67.5802   94.5056    9.3943 C.ar    1  UNL1       -0.0085
     28 C          66.7865   95.3602   10.3376 C.ar    1  UNL1       -0.0224
     29 C          66.5208   96.7983   10.0039 C.3     1  UNL1        0.0310
     30 C          66.2585   94.7767   11.6146 C.ar    1  UNL1       -0.0050
     31 C          66.5242   93.3387   11.9483 C.ar    1  UNL1        0.0205
     32 C          67.3179   92.4841   11.0050 C.ar    1  UNL1       -0.0050
@<TRIPOS>BOND
     1    25    26    1
     2    26    27   ar
     3    27    28   ar
     4    28    29    1
     5    28    30   ar
     6    30    31   ar
     7    31    24    1
     8    24    23    1
     9    23     1    1
    10     1     2   ar
    11     2     3   ar
    12     3     4   ar
    13     4     7    1
    14     7    18    1
    15    18    19    1
    16    19    20    1
    17     7     8   am
    18     8     9    2
    19     8    10    1
    20    10    11   ar
    21    11    12   ar
    22    12    13   ar
    23    13    14    1
    24    13    15   ar
    25    15    16   ar
    26    16    17    1
    27     4     5   ar
    28     5     6   ar
    29    31    32   ar
    30    32    26   ar
    31     6     1   ar
    32    16    10   ar
    33    20    21    1
    34    20    22    1
@<TRIPOS>MOLECULE
*****
 32 34 0 0 0
SMALL
GASTEIGER

@<TRIPOS>ATOM
      1 C          64.2255   90.8681   13.2237 C.ar    1  UNL1        0.1391
      2 C          64.6459   89.8821   14.2730 C.ar    1  UNL1        0.0382
      3 C          64.2774   88.4349   14.1328 C.ar    1  UNL1        0.0180
      4 C          63.4885   87.9737   12.9432 C.ar    1  UNL1        0.0544
      5 C          63.0681   88.9597   11.8940 C.ar    1  UNL1        0.0180
      6 C          63.4366   90.4069   12.0342 C.ar    1  UNL1        0.0382
      7 N          63.1200   86.5264   12.8030 N.am    1  UNL1       -0.2537
      8 C          63.8187   85.4908   13.6333 C.2     1  UNL1        0.2536
      9 O          64.8858   85.9024   14.6038 O.2     1  UNL1       -0.2695
     10 C          63.4502   84.0435   13.4931 C.ar    1  UNL1        0.0645
     11 C          64.0593   83.2171   12.3996 C.ar    1  UNL1        0.0062
     12 C          63.6909   81.7698   12.2593 C.ar    1  UNL1        0.0116
     13 C          62.7134   81.1489   13.2127 C.ar    1  UNL1        0.0585
     14 CL         62.3449   79.7017   13.0726 Cl      1  UNL1       -0.0822
     15 C          62.1043   81.9754   14.3064 C.ar    1  UNL1        0.0229
     16 C          62.4727   83.4227   14.4466 C.ar    1  UNL1        0.0629
     17 CL         61.8636   84.2491   15.5402 Cl      1  UNL1       -0.0821
     18 C          62.0529   86.1148   11.8326 C.3     1  UNL1        0.1153
     19 C          62.4234   85.7188   10.4340 C.3     1  UNL1        0.0873
     20 N          62.0965   86.6270    9.2858 N.3     1  UNL1       -0.3197
     21 H          61.0840   86.6929    9.1820 H       1  UNL1        0.1189
     22 H          62.5024   86.2513    8.4289 H       1  UNL1        0.1189
     23 O          64.5940   92.3154   13.3640 O.3     1  UNL1       -0.4706
     24 C          66.0287   92.7384   13.2514 C.3     1  UNL1        0.2320
     25 C          66.4688   96.8300   10.0789 C.3     1  UNL1        0.0310
     26 C          66.7541   95.3905   10.3896 C.ar    1  UNL1       -0.0224
     27 C          67.5447   94.5574    9.4248 C.ar    1  UNL1       -0.0085
     28 C          67.8299   93.1179    9.7355 C.ar    1  UNL1       -0.0224
     29 C          68.6205   92.2848    8.7707 C.3     1  UNL1        0.0310
     30 C          67.3246   92.5116   11.0111 C.ar    1  UNL1       -0.0050
     31 C          66.5340   93.3447   11.9758 C.ar    1  UNL1        0.0205
     32 C          66.2488   94.7842   11.6651 C.ar    1  UNL1       -0.0050
@<TRIPOS>BOND
     1    25    26    1
     2    26    27   ar
     3    27    28   ar
     4    28    29    1
     5    28    30   ar
     6    30    31   ar
     7    31    24    1
     8    24    23    1
     9    23     1    1
    10     1     2   ar
    11     2     3   ar
    12     3     4   ar
    13     4     7    1
    14     7    18    1
    15    18    19    1
    16    19    20    1
    17     7     8   am
    18     8     9    2
    19     8    10    1
    20    10    11   ar
    21    11    12   ar
    22    12    13   ar
    23    13    14    1
    24    13    15   ar
    25    15    16   ar
    26    16    17    1
    27     4     5   ar
    28     5     6   ar
    29    31    32   ar
    30    32    26   ar
    31     6     1   ar
    32    16    10   ar
    33    20    21    1
    34    20    22    1
@<TRIPOS>MOLECULE
*****
 32 34 0 0 0
SMALL
GASTEIGER

@<TRIPOS>ATOM
      1 C          61.1450   89.6079   10.4543 C.ar    1  UNL1        0.1391
      2 C          62.2325   90.2190    9.6214 C.ar    1  UNL1        0.0382
      3 C          63.3931   90.8991   10.2850 C.ar    1  UNL1        0.0180
      4 C          63.4663   90.9680   11.7816 C.ar    1  UNL1        0.0544
      5 C          62.3788   90.3568   12.6146 C.ar    1  UNL1        0.0180
      6 C          61.2182   89.6768   11.9510 C.ar    1  UNL1        0.0382
      7 N          64.6270   91.6481   12.4453 N.am    1  UNL1       -0.2537
      8 C          65.2697   91.0289   13.6509 C.2     1  UNL1        0.2536
      9 O          64.7517   89.7296   14.1929 O.2     1  UNL1       -0.2695
     10 C          66.4303   91.7089   14.3145 C.ar    1  UNL1        0.0645
     11 C          67.7717   91.7285   13.6436 C.ar    1  UNL1        0.0062
     12 C          68.9324   92.4085   14.3072 C.ar    1  UNL1        0.0116
     13 C          68.7517   93.0690   15.6418 C.ar    1  UNL1        0.0585
     14 CL         69.9123   93.7490   16.3054 Cl      1  UNL1       -0.0822
     15 C          67.4102   93.0494   16.3127 C.ar    1  UNL1        0.0229
     16 C          66.2495   92.3694   15.6491 C.ar    1  UNL1        0.0629
     17 CL         64.9082   92.3498   16.3201 Cl      1  UNL1       -0.0821
     18 C          65.1449   92.9473   11.9033 C.3     1  UNL1        0.1153
     19 C          66.1277   92.9486   10.7701 C.3     1  UNL1        0.0873
     20 N          67.1812   94.0136   10.6923 N.3     1  UNL1       -0.3197
     21 H          66.7385   94.9190   10.5353 H       1  UNL1        0.1189
     22 H          67.8166   93.8076    9.9214 H       1  UNL1        0.1189
     23 O          59.9843   88.9278    9.7907 O.3     1  UNL1       -0.4706
     24 C          59.7567   87.4598    9.9980 C.3     1  UNL1        0.2320
     25 C          63.3569   84.2779   11.9766 C.3     1  UNL1        0.0310
     26 C          62.6843   84.8996   10.7887 C.ar    1  UNL1       -0.0224
     27 C          63.1391   84.5521    9.4023 C.ar    1  UNL1       -0.0085
     28 C          62.4665   85.1738    8.2144 C.ar    1  UNL1       -0.0224
     29 C          62.9213   84.8262    6.8279 C.3     1  UNL1        0.0310
     30 C          61.3390   86.1430    8.4130 C.ar    1  UNL1       -0.0050
     31 C          60.8842   86.4905    9.7994 C.ar    1  UNL1        0.0205
     32 C          61.5568   85.8688   10.9873 C.ar    1  UNL1       -0.0050
@<TRIPOS>BOND
     1    25    26    1
     2    26    27   ar
     3    27    28   ar
     4    28    29    1
     5    28    30   ar
     6    30    31   ar
     7    31    24    1
     8    24    23    1
     9    23     1    1
    10     1     2   ar
    11     2     3   ar
    12     3     4   ar
    13     4     7    1
    14     7    18    1
    15    18    19    1
    16    19    20    1
    17     7     8   am
    18     8     9    2
    19     8    10    1
    20    10    11   ar
    21    11    12   ar
    22    12    13   ar
    23    13    14    1
    24    13    15   ar
    25    15    16   ar
    26    16    17    1
    27     4     5   ar
    28     5     6   ar
    29    31    32   ar
    30    32    26   ar
    31     6     1   ar
    32    16    10   ar
    33    20    21    1
    34    20    22    1
@<TRIPOS>MOLECULE
*****
 32 34 0 0 0
SMALL
GASTEIGER

@<TRIPOS>ATOM
      1 C          61.1313   89.6093   10.4897 C.ar    1  UNL1        0.1391
      2 C          62.2285   90.1932    9.6499 C.ar    1  UNL1        0.0382
      3 C          63.3947   90.8713   10.3056 C.ar    1  UNL1        0.0180
      4 C          63.4639   90.9655   11.8010 C.ar    1  UNL1        0.0544
      5 C          62.3667   90.3817   12.6408 C.ar    1  UNL1        0.0180
      6 C          61.2004   89.7036   11.9851 C.ar    1  UNL1        0.0382
      7 N          64.6302   91.6437   12.4567 N.am    1  UNL1       -0.2537
      8 C          65.2659   91.0350   13.6713 C.2     1  UNL1        0.2536
      9 O          64.7352   89.7481   14.2303 O.2     1  UNL1       -0.2695
     10 C          66.4322   91.7130   14.3270 C.ar    1  UNL1        0.0645
     11 C          67.7694   91.7288   13.6476 C.ar    1  UNL1        0.0062
     12 C          68.9358   92.4069   14.3033 C.ar    1  UNL1        0.0116
     13 C          68.7649   93.0692   15.6382 C.ar    1  UNL1        0.0585
     14 CL         69.9312   93.7473   16.2939 Cl      1  UNL1       -0.0822
     15 C          67.4275   93.0534   16.3176 C.ar    1  UNL1        0.0229
     16 C          66.2613   92.3754   15.6619 C.ar    1  UNL1        0.0629
     17 CL         64.9240   92.3596   16.3412 Cl      1  UNL1       -0.0821
     18 C          65.1608   92.9305   11.8977 C.3     1  UNL1        0.1153
     19 C          66.1491   92.9071   10.7695 C.3     1  UNL1        0.0873
     20 N          67.1648   94.0033   10.6393 N.3     1  UNL1       -0.3197
     21 H          66.6912   94.8828   10.4331 H       1  UNL1        0.1189
     22 H          67.8112   93.7797    9.8826 H       1  UNL1        0.1189
     23 O          59.9650   88.9312    9.8341 O.3     1  UNL1       -0.4706
     24 C          59.7420   87.4615   10.0349 C.3     1  UNL1        0.2320
     25 C          62.9051   84.8340    6.8582 C.3     1  UNL1        0.0310
     26 C          62.4546   85.1832    8.2457 C.ar    1  UNL1       -0.0224
     27 C          63.1353   84.5680    9.4324 C.ar    1  UNL1       -0.0085
     28 C          62.6849   84.9173   10.8199 C.ar    1  UNL1       -0.0224
     29 C          63.3656   84.3020   12.0065 C.3     1  UNL1        0.0310
     30 C          61.5538   85.8818   11.0207 C.ar    1  UNL1       -0.0050
     31 C          60.8731   86.4970    9.8341 C.ar    1  UNL1        0.0205
     32 C          61.3236   86.1477    8.4466 C.ar    1  UNL1       -0.0050
@<TRIPOS>BOND
     1    25    26    1
     2    26    27   ar
     3    27    28   ar
     4    28    29    1
     5    28    30   ar
     6    30    31   ar
     7    31    24    1
     8    24    23    1
     9    23     1    1
    10     1     2   ar
    11     2     3   ar
    12     3     4   ar
    13     4     7    1
    14     7    18    1
    15    18    19    1
    16    19    20    1
    17     7     8   am
    18     8     9    2
    19     8    10    1
    20    10    11   ar
    21    11    12   ar
    22    12    13   ar
    23    13    14    1
    24    13    15   ar
    25    15    16   ar
    26    16    17    1
    27     4     5   ar
    28     5     6   ar
    29    31    32   ar
    30    32    26   ar
    31     6     1   ar
    32    16    10   ar
    33    20    21    1
    34    20    22    1
@<TRIPOS>MOLECULE
*****
 32 34 0 0 0
SMALL
GASTEIGER

@<TRIPOS>ATOM
      1 C          60.9929   89.7190   10.4134 C.ar    1  UNL1        0.1391
      2 C          62.3378   90.0734    9.8516 C.ar    1  UNL1        0.0382
      3 C          63.4683   90.4202   10.7745 C.ar    1  UNL1        0.0180
      4 C          63.2539   90.4125   12.2591 C.ar    1  UNL1        0.0544
      5 C          61.9090   90.0582   12.8208 C.ar    1  UNL1        0.0180
      6 C          60.7785   89.7114   11.8980 C.ar    1  UNL1        0.0382
      7 N          64.3845   90.7593   13.1819 N.am    1  UNL1       -0.2537
      8 C          65.2841   91.9168   12.8639 C.2     1  UNL1        0.2536
      9 O          65.0531   92.7274   11.6231 O.2     1  UNL1       -0.2695
     10 C          66.4147   92.2636   13.7867 C.ar    1  UNL1        0.0645
     11 C          66.1263   92.8040   15.1559 C.ar    1  UNL1        0.0062
     12 C          67.2569   93.1508   16.0788 C.ar    1  UNL1        0.0116
     13 C          68.6758   92.9572   15.6323 C.ar    1  UNL1        0.0585
     14 CL         69.8063   93.3040   16.5551 Cl      1  UNL1       -0.0822
     15 C          68.9641   92.4168   14.2630 C.ar    1  UNL1        0.0229
     16 C          67.8335   92.0700   13.3402 C.ar    1  UNL1        0.0629
     17 CL         68.1218   91.5296   11.9710 Cl      1  UNL1       -0.0821
     18 C          64.6155   89.9487   14.4226 C.3     1  UNL1        0.1153
     19 C          63.6227   89.9973   15.5459 C.3     1  UNL1        0.0873
     20 N          63.4589   91.2541   16.3483 N.3     1  UNL1       -0.3197
     21 H          64.3158   91.4387   16.8698 H       1  UNL1        0.1189
     22 H          62.6818   91.1429   16.9995 H       1  UNL1        0.1189
     23 O          59.8623   89.3723    9.4906 O.3     1  UNL1       -0.4706
     24 C          59.5625   87.9361    9.1785 C.3     1  UNL1        0.2320
     25 C          62.7914   85.0409   12.0407 C.3     1  UNL1        0.0310
     26 C          62.2637   85.4586   10.7001 C.ar    1  UNL1       -0.0224
     27 C          62.8229   84.8464    9.4501 C.ar    1  UNL1       -0.0085
     28 C          62.2953   85.2642    8.1096 C.ar    1  UNL1       -0.0224
     29 C          62.8545   84.6519    6.8595 C.3     1  UNL1        0.0310
     30 C          61.2085   86.2940    8.0190 C.ar    1  UNL1       -0.0050
     31 C          60.6493   86.9062    9.2690 C.ar    1  UNL1        0.0205
     32 C          61.1770   86.4885   10.6096 C.ar    1  UNL1       -0.0050
@<TRIPOS>BOND
     1    25    26    1
     2    26    27   ar
     3    27    28   ar
     4    28    29    1
     5    28    30   ar
     6    30    31   ar
     7    31    24    1
     8    24    23    1
     9    23     1    1
    10     1     2   ar
    11     2     3   ar
    12     3     4   ar
    13     4     7    1
    14     7    18    1
    15    18    19    1
    16    19    20    1
    17     7     8   am
    18     8     9    2
    19     8    10    1
    20    10    11   ar
    21    11    12   ar
    22    12    13   ar
    23    13    14    1
    24    13    15   ar
    25    15    16   ar
    26    16    17    1
    27     4     5   ar
    28     5     6   ar
    29    31    32   ar
    30    32    26   ar
    31     6     1   ar
    32    16    10   ar
    33    20    21    1
    34    20    22    1
@<TRIPOS>MOLECULE
*****
 32 34 0 0 0
SMALL
GASTEIGER

@<TRIPOS>ATOM
      1 C          61.4169   89.7928   10.5637 C.ar    1  UNL1        0.1391
      2 C          61.5734   89.7368   12.0544 C.ar    1  UNL1        0.0382
      3 C          62.7251   90.4354   12.7143 C.ar    1  UNL1        0.0180
      4 C          63.7203   91.1899   11.8836 C.ar    1  UNL1        0.0544
      5 C          63.5638   91.2459   10.3928 C.ar    1  UNL1        0.0180
      6 C          62.4121   90.5473    9.7329 C.ar    1  UNL1        0.0382
      7 N          64.8720   91.8885   12.5436 N.am    1  UNL1       -0.2537
      8 C          65.5515   91.2623   13.7252 C.2     1  UNL1        0.2536
      9 O          65.0791   89.9376   14.2469 O.2     1  UNL1       -0.2695
     10 C          66.7031   91.9608   14.3853 C.ar    1  UNL1        0.0645
     11 C          66.5048   92.6569   15.6991 C.ar    1  UNL1        0.0062
     12 C          67.6565   93.3554   16.3592 C.ar    1  UNL1        0.0116
     13 C          69.0065   93.3579   15.7054 C.ar    1  UNL1        0.0585
     14 CL         70.1582   94.0564   16.3654 Cl      1  UNL1       -0.0822
     15 C          69.2048   92.6618   14.3915 C.ar    1  UNL1        0.0229
     16 C          68.0532   91.9633   13.7315 C.ar    1  UNL1        0.0629
     17 CL         68.2515   91.2673   12.4177 Cl      1  UNL1       -0.0821
     18 C          65.3443   93.2132   12.0220 C.3     1  UNL1        0.1153
     19 C          66.0685   93.2878   10.7105 C.3     1  UNL1        0.0873
     20 N          67.2904   94.1474   10.5763 N.3     1  UNL1       -0.3197
     21 H          67.0299   95.1278   10.6834 H       1  UNL1        0.1189
     22 H          67.7070   94.0049    9.6562 H       1  UNL1        0.1189
     23 O          60.2652   89.0942    9.9036 O.3     1  UNL1       -0.4706
     24 C          59.9694   87.6609   10.2323 C.3     1  UNL1        0.2320
     25 C          63.3285   84.1842   12.1373 C.3     1  UNL1        0.0310
     26 C          62.6954   84.8709   10.9636 C.ar    1  UNL1       -0.0224
     27 C          63.1088   84.5060    9.5686 C.ar    1  UNL1       -0.0085
     28 C          62.4758   85.1928    8.3949 C.ar    1  UNL1       -0.0224
     29 C          62.8892   84.8278    6.9999 C.3     1  UNL1        0.0310
     30 C          61.4293   86.2444    8.6161 C.ar    1  UNL1       -0.0050
     31 C          61.0159   86.6093   10.0111 C.ar    1  UNL1        0.0205
     32 C          61.6490   85.9225   11.1848 C.ar    1  UNL1       -0.0050
@<TRIPOS>BOND
     1    25    26    1
     2    26    27   ar
     3    27    28   ar
     4    28    29    1
     5    28    30   ar
     6    30    31   ar
     7    31    24    1
     8    24    23    1
     9    23     1    1
    10     1     2   ar
    11     2     3   ar
    12     3     4   ar
    13     4     7    1
    14     7    18    1
    15    18    19    1
    16    19    20    1
    17     7     8   am
    18     8     9    2
    19     8    10    1
    20    10    11   ar
    21    11    12   ar
    22    12    13   ar
    23    13    14    1
    24    13    15   ar
    25    15    16   ar
    26    16    17    1
    27     4     5   ar
    28     5     6   ar
    29    31    32   ar
    30    32    26   ar
    31     6     1   ar
    32    16    10   ar
    33    20    21    1
    34    20    22    1
@<TRIPOS>MOLECULE
*****
 32 34 0 0 0
SMALL
GASTEIGER

@<TRIPOS>ATOM
      1 C          63.7332   87.8267   14.7986 C.ar    1  UNL1        0.1391
      2 C          63.5222   87.7848   13.3141 C.ar    1  UNL1        0.0382
      3 C          63.8496   88.9849   12.4760 C.ar    1  UNL1        0.0180
      4 C          64.3880   90.2268   13.1223 C.ar    1  UNL1        0.0544
      5 C          64.5990   90.2687   14.6068 C.ar    1  UNL1        0.0180
      6 C          64.2715   89.0686   15.4449 C.ar    1  UNL1        0.0382
      7 N          64.7154   91.4270   12.2840 N.am    1  UNL1       -0.2537
      8 C          66.0755   92.0536   12.3704 C.2     1  UNL1        0.2536
      9 O          67.1082   91.4802   13.2950 O.2     1  UNL1       -0.2695
     10 C          66.4030   93.2537   11.5322 C.ar    1  UNL1        0.0645
     11 C          65.8830   94.6055   11.9224 C.ar    1  UNL1        0.0062
     12 C          66.2104   95.8056   11.0842 C.ar    1  UNL1        0.0116
     13 C          67.0578   95.6539    9.8558 C.ar    1  UNL1        0.0585
     14 CL         67.3853   96.8539    9.0177 Cl      1  UNL1       -0.0822
     15 C          67.5778   94.3020    9.4657 C.ar    1  UNL1        0.0229
     16 C          67.2504   93.1020   10.3039 C.ar    1  UNL1        0.0629
     17 CL         67.7704   91.7502    9.9137 Cl      1  UNL1       -0.0821
     18 C          63.6828   92.0003   11.3595 C.3     1  UNL1        0.1153
     19 C          63.2726   91.2432   10.1313 C.3     1  UNL1        0.0873
     20 N          61.8816   90.6931   10.0190 N.3     1  UNL1       -0.3197
     21 H          61.7458   89.9659   10.7211 H       1  UNL1        0.1189
     22 H          61.7467   90.2971    9.0887 H       1  UNL1        0.1189
     23 O          63.4058   86.6266   15.6369 O.3     1  UNL1       -0.4706
     24 C          64.1837   85.3559   15.4636 C.3     1  UNL1        0.2320
     25 C          64.4287   83.3109   10.6931 C.3     1  UNL1        0.0310
     26 C          63.8563   83.3087   12.0795 C.ar    1  UNL1       -0.0224
     27 C          62.8339   82.2819   12.4672 C.ar    1  UNL1       -0.0085
     28 C          62.2615   82.2797   13.8537 C.ar    1  UNL1       -0.0224
     29 C          61.2391   81.2528   14.2413 C.3     1  UNL1        0.0310
     30 C          62.7114   83.3043   14.8525 C.ar    1  UNL1       -0.0050
     31 C          63.7338   84.3312   14.4648 C.ar    1  UNL1        0.0205
     32 C          64.3062   84.3334   13.0783 C.ar    1  UNL1       -0.0050
@<TRIPOS>BOND
     1    25    26    1
     2    26    27   ar
     3    27    28   ar
     4    28    29    1
     5    28    30   ar
     6    30    31   ar
     7    31    24    1
     8    24    23    1
     9    23     1    1
    10     1     2   ar
    11     2     3   ar
    12     3     4   ar
    13     4     7    1
    14     7    18    1
    15    18    19    1
    16    19    20    1
    17     7     8   am
    18     8     9    2
    19     8    10    1
    20    10    11   ar
    21    11    12   ar
    22    12    13   ar
    23    13    14    1
    24    13    15   ar
    25    15    16   ar
    26    16    17    1
    27     4     5   ar
    28     5     6   ar
    29    31    32   ar
    30    32    26   ar
    31     6     1   ar
    32    16    10   ar
    33    20    21    1
    34    20    22    1
@<TRIPOS>MOLECULE
*****
 32 34 0 0 0
SMALL
GASTEIGER

@<TRIPOS>ATOM
      1 C          60.5330   89.2892    9.9663 C.ar    1  UNL1        0.1391
      2 C          61.9558   89.4640    9.5246 C.ar    1  UNL1        0.0382
      3 C          62.9828   89.9777   10.4896 C.ar    1  UNL1        0.0180
      4 C          62.5871   90.3167   11.8962 C.ar    1  UNL1        0.0544
      5 C          61.1643   90.1418   12.3378 C.ar    1  UNL1        0.0180
      6 C          60.1373   89.6281   11.3729 C.ar    1  UNL1        0.0382
      7 N          63.6142   90.8304   12.8612 N.am    1  UNL1       -0.2537
      8 C          64.7714   91.6439   12.3621 C.2     1  UNL1        0.2536
      9 O          64.9015   91.9436   10.8981 O.2     1  UNL1       -0.2695
     10 C          65.7985   92.1577   13.3270 C.ar    1  UNL1        0.0645
     11 C          66.3134   91.2674   14.4189 C.ar    1  UNL1        0.0062
     12 C          67.3405   91.7811   15.3839 C.ar    1  UNL1        0.0116
     13 C          67.8528   93.1852   15.2569 C.ar    1  UNL1        0.0585
     14 CL         68.8799   93.6990   16.2218 Cl      1  UNL1       -0.0822
     15 C          67.3379   94.0755   14.1649 C.ar    1  UNL1        0.0229
     16 C          66.3108   93.5618   13.2000 C.ar    1  UNL1        0.0629
     17 CL         65.7960   94.4521   12.1081 Cl      1  UNL1       -0.0821
     18 C          63.4841   90.5307   14.3251 C.3     1  UNL1        0.1153
     19 C          63.7182   89.1375   14.8291 C.3     1  UNL1        0.0873
     20 N          63.2982   88.7623   16.2194 N.3     1  UNL1       -0.3197
     21 H          63.8557   89.2843   16.8955 H       1  UNL1        0.1189
     22 H          63.4421   87.7623   16.3599 H       1  UNL1        0.1189
     23 O          59.5059   88.7754    9.0013 O.3     1  UNL1       -0.4706
     24 C          59.3155   87.2981    8.8246 C.3     1  UNL1        0.2320
     25 C          62.5898   84.4233    5.9936 C.3     1  UNL1        0.0310
     26 C          62.1458   84.9556    7.3238 C.ar    1  UNL1       -0.0224
     27 C          62.8949   84.5829    8.5687 C.ar    1  UNL1       -0.0085
     28 C          62.4509   85.1152    9.8989 C.ar    1  UNL1       -0.0224
     29 C          63.2001   84.7425   11.1439 C.3     1  UNL1        0.0310
     30 C          61.2578   86.0203    9.9842 C.ar    1  UNL1       -0.0050
     31 C          60.5087   86.3930    8.7393 C.ar    1  UNL1        0.0205
     32 C          60.9527   85.8607    7.4091 C.ar    1  UNL1       -0.0050
@<TRIPOS>BOND
     1    25    26    1
     2    26    27   ar
     3    27    28   ar
     4    28    29    1
     5    28    30   ar
     6    30    31   ar
     7    31    24    1
     8    24    23    1
     9    23     1    1
    10     1     2   ar
    11     2     3   ar
    12     3     4   ar
    13     4     7    1
    14     7    18    1
    15    18    19    1
    16    19    20    1
    17     7     8   am
    18     8     9    2
    19     8    10    1
    20    10    11   ar
    21    11    12   ar
    22    12    13   ar
    23    13    14    1
    24    13    15   ar
    25    15    16   ar
    26    16    17    1
    27     4     5   ar
    28     5     6   ar
    29    31    32   ar
    30    32    26   ar
    31     6     1   ar
    32    16    10   ar
    33    20    21    1
    34    20    22    1
