@<TRIPOS>MOLECULE
*****
 30 33 0 0 0
SMALL
GASTEIGER

@<TRIPOS>ATOM
      1 O          64.2114   87.7533   13.1642 O.2     1  UNL1       -0.2522
      2 C          64.1164   87.9876   14.6427 C.2     1  UNL1        0.3082
      3 N          64.4699   89.3290   15.2136 N.am    1  UNL1       -0.2681
      4 N          63.6680   86.8808   15.5502 N.am    1  UNL1       -0.2679
      5 H          64.4076   89.4828   16.1840 H       1  UNL1        0.1564
      6 H          63.6057   87.0346   16.5206 H       1  UNL1        0.1564
      7 C          64.9183   90.4358   14.3061 C.ar    1  UNL1        0.0516
      8 C          64.0981   90.7988   13.1038 C.ar    1  UNL1        0.0147
      9 C          64.5465   91.9056   12.1963 C.ar    1  UNL1        0.0010
     10 C          65.8153   92.6497   12.4910 C.ar    1  UNL1       -0.0014
     11 C          66.6355   92.2868   13.6933 C.ar    1  UNL1        0.0010
     12 C          66.1870   91.1799   14.6009 C.ar    1  UNL1        0.0147
     13 C          66.2637   93.7566   11.5835 C.2     1  UNL1        0.0158
     14 C          65.8319   95.1678   11.8517 C.2     1  UNL1        0.0487
     15 C          66.2803   96.2747   10.9443 C.2     1  UNL1        0.2355
     16 N          67.1606   95.9704    9.7683 N.2     1  UNL1       -0.0325
     17 C          67.5923   94.5592    9.5000 C.2     1  UNL1        0.3799
     18 N          68.4513   93.9593    8.4266 N.2     1  UNL1       -0.0106
     19 C          68.5337   92.4816    8.6708 C.2     1  UNL1        0.3351
     20 N          67.7257   92.1682    9.8951 N.2     1  UNL1       -0.2103
     21 C          67.1439   93.4523   10.4076 C.3     1  UNL1        0.2404
     22 C          63.3145   85.5394   14.9792 C.ar    1  UNL1        0.0577
     23 C          62.5699   84.5411   15.8153 C.ar    1  UNL1        0.0151
     24 C          62.2164   83.1998   15.2444 C.ar    1  UNL1        0.0076
     25 C          62.6075   82.8568   13.8375 C.ar    1  UNL1        0.0754
     26 C          63.3521   83.8552   13.0014 C.ar    1  UNL1        0.2913
     27 C          63.7056   85.1965   13.5724 C.ar    1  UNL1        0.0899
     28 N          63.7432   83.5122   11.5946 N.pl3   1  UNL1        0.0810
     29 O          64.7146   82.3988   11.3364 O.2     1  UNL1        0.0415
     30 O          63.1629   84.2826   10.4457 O.co2   1  UNL1       -0.5760
@<TRIPOS>UNITY_ATOM_ATTR
28 1
charge 1
30 1
charge -1
@<TRIPOS>BOND
     1     1     2    2
     2     2     3   am
     3     3     7    1
     4     7     8   ar
     5     8     9   ar
     6     9    10   ar
     7    10    13    1
     8    13    14    2
     9    14    15    1
    10    15    16    2
    11    16    17    1
    12    17    18    2
    13    18    19    1
    14    19    20    2
    15    20    21    1
    16    10    11   ar
    17    11    12   ar
    18     2     4   am
    19     4    22    1
    20    22    23   ar
    21    23    24   ar
    22    24    25   ar
    23    25    26   ar
    24    26    28    1
    25    28    29    2
    26    28    30    1
    27    26    27   ar
    28    12     7   ar
    29    27    22   ar
    30    21    13    1
    31    21    17    1
    32     3     5    1
    33     4     6    1
@<TRIPOS>MOLECULE
*****
 30 33 0 0 0
SMALL
GASTEIGER

@<TRIPOS>ATOM
      1 O          63.5599   85.4015   13.7409 O.2     1  UNL1       -0.2522
      2 C          62.9246   85.2307   15.0889 C.2     1  UNL1        0.3082
      3 N          62.9170   86.3703   16.0643 N.am    1  UNL1       -0.2681
      4 N          62.2968   83.9204   15.4615 N.am    1  UNL1       -0.2679
      5 H          62.5000   86.2583   16.9490 H       1  UNL1        0.1564
      6 H          61.8798   83.8083   16.3463 H       1  UNL1        0.1564
      7 C          63.5447   87.6806   15.6916 C.ar    1  UNL1        0.0516
      8 C          64.5376   87.7443   14.5690 C.ar    1  UNL1        0.0147
      9 C          65.1654   89.0546   14.1963 C.ar    1  UNL1        0.0010
     10 C          64.8003   90.3014   14.9463 C.ar    1  UNL1       -0.0014
     11 C          63.8075   90.2378   16.0689 C.ar    1  UNL1        0.0010
     12 C          63.1797   88.9273   16.4415 C.ar    1  UNL1        0.0147
     13 C          65.4281   91.6117   14.5737 C.2     1  UNL1        0.0158
     14 C          66.1803   92.4025   15.6026 C.2     1  UNL1        0.0487
     15 C          66.8081   93.7128   15.2300 C.2     1  UNL1        0.2355
     16 N          66.6837   94.2324   13.8283 N.2     1  UNL1       -0.0325
     17 C          65.9314   93.4416   12.7994 C.2     1  UNL1        0.3799
     18 N          65.6441   93.6976   11.3496 N.2     1  UNL1       -0.0106
     19 C          64.8386   92.5455   10.8262 C.2     1  UNL1        0.3351
     20 N          64.6282   91.5774   11.9526 N.2     1  UNL1       -0.2103
     21 C          65.3036   92.1313   13.1720 C.3     1  UNL1        0.2404
     22 C          62.3044   82.7808   14.4861 C.ar    1  UNL1        0.0577
     23 C          61.5577   81.5187   14.8017 C.ar    1  UNL1        0.0151
     24 C          61.5653   80.3791   13.8264 C.ar    1  UNL1        0.0076
     25 C          62.3194   80.5015   12.5356 C.ar    1  UNL1        0.0754
     26 C          63.0661   81.7637   12.2200 C.ar    1  UNL1        0.2913
     27 C          63.0586   82.9034   13.1954 C.ar    1  UNL1        0.0899
     28 N          63.8202   81.8862   10.9293 N.pl3   1  UNL1        0.0810
     29 O          63.4962   80.9759    9.7820 O.2     1  UNL1        0.0415
     30 O          64.8986   82.9191   10.7857 O.co2   1  UNL1       -0.5760
@<TRIPOS>UNITY_ATOM_ATTR
28 1
charge 1
30 1
charge -1
@<TRIPOS>BOND
     1     1     2    2
     2     2     3   am
     3     3     7    1
     4     7     8   ar
     5     8     9   ar
     6     9    10   ar
     7    10    13    1
     8    13    14    2
     9    14    15    1
    10    15    16    2
    11    16    17    1
    12    17    18    2
    13    18    19    1
    14    19    20    2
    15    20    21    1
    16    10    11   ar
    17    11    12   ar
    18     2     4   am
    19     4    22    1
    20    22    23   ar
    21    23    24   ar
    22    24    25   ar
    23    25    26   ar
    24    26    28    1
    25    28    29    2
    26    28    30    1
    27    26    27   ar
    28    12     7   ar
    29    27    22   ar
    30    21    13    1
    31    21    17    1
    32     3     5    1
    33     4     6    1
@<TRIPOS>MOLECULE
*****
 30 33 0 0 0
SMALL
GASTEIGER

@<TRIPOS>ATOM
      1 O          64.4728   87.8328   13.4209 O.2     1  UNL1       -0.2522
      2 C          64.1093   88.4739   14.7274 C.2     1  UNL1        0.3082
      3 N          64.3444   89.9410   14.9340 N.am    1  UNL1       -0.2681
      4 N          63.5108   87.6481   15.8272 N.am    1  UNL1       -0.2679
      5 H          64.1058   90.3618   15.7914 H       1  UNL1        0.1564
      6 H          63.2723   88.0689   16.6847 H       1  UNL1        0.1564
      7 C          64.9428   90.7668   13.8342 C.ar    1  UNL1        0.0516
      8 C          64.1462   91.0591   12.5972 C.ar    1  UNL1        0.0147
      9 C          64.7447   91.8849   11.4974 C.ar    1  UNL1        0.0010
     10 C          66.1399   92.4186   11.6344 C.ar    1  UNL1       -0.0014
     11 C          66.9366   92.1263   12.8713 C.ar    1  UNL1        0.0010
     12 C          66.3380   91.3004   13.9712 C.ar    1  UNL1        0.0147
     13 C          66.7384   93.2444   10.5345 C.2     1  UNL1        0.0158
     14 C          67.7933   92.6570    9.6446 C.2     1  UNL1        0.0487
     15 C          68.3918   93.4828    8.5448 C.2     1  UNL1        0.2355
     16 N          67.9354   94.8962    8.3347 N.2     1  UNL1       -0.0325
     17 C          66.8805   95.4837    9.2247 C.2     1  UNL1        0.3799
     18 N          66.2355   96.8375    9.2581 N.2     1  UNL1       -0.0106
     19 C          65.2385   96.8484   10.3787 C.2     1  UNL1        0.3351
     20 N          65.2671   95.5013   11.0378 N.2     1  UNL1       -0.2103
     21 C          66.2820   94.6578   10.3246 C.3     1  UNL1        0.2404
     22 C          63.2757   86.1810   15.6206 C.ar    1  UNL1        0.0577
     23 C          62.6097   85.3700   16.6924 C.ar    1  UNL1        0.0151
     24 C          62.3747   83.9030   16.4859 C.ar    1  UNL1        0.0076
     25 C          62.8055   83.2470   15.2076 C.ar    1  UNL1        0.0754
     26 C          63.4716   84.0581   14.1358 C.ar    1  UNL1        0.2913
     27 C          63.7067   85.5251   14.3424 C.ar    1  UNL1        0.0899
     28 N          63.9025   83.4021   12.8576 N.pl3   1  UNL1        0.0810
     29 O          63.5937   84.0505   11.5407 O.2     1  UNL1        0.0415
     30 O          64.6421   82.0977   12.8961 O.co2   1  UNL1       -0.5760
@<TRIPOS>UNITY_ATOM_ATTR
28 1
charge 1
30 1
charge -1
@<TRIPOS>BOND
     1     1     2    2
     2     2     3   am
     3     3     7    1
     4     7     8   ar
     5     8     9   ar
     6     9    10   ar
     7    10    13    1
     8    13    14    2
     9    14    15    1
    10    15    16    2
    11    16    17    1
    12    17    18    2
    13    18    19    1
    14    19    20    2
    15    20    21    1
    16    10    11   ar
    17    11    12   ar
    18     2     4   am
    19     4    22    1
    20    22    23   ar
    21    23    24   ar
    22    24    25   ar
    23    25    26   ar
    24    26    28    1
    25    28    29    2
    26    28    30    1
    27    26    27   ar
    28    12     7   ar
    29    27    22   ar
    30    21    13    1
    31    21    17    1
    32     3     5    1
    33     4     6    1
@<TRIPOS>MOLECULE
*****
 30 33 0 0 0
SMALL
GASTEIGER

@<TRIPOS>ATOM
      1 O          64.6899   88.9110   13.6764 O.2     1  UNL1       -0.2522
      2 C          64.2814   89.2358   15.0826 C.2     1  UNL1        0.3082
      3 N          63.6391   88.1848   15.9388 N.am    1  UNL1       -0.2681
      4 N          64.5150   90.6115   15.6327 N.am    1  UNL1       -0.2679
      5 H          63.3709   88.3980   16.8618 H       1  UNL1        0.1564
      6 H          64.2469   90.8247   16.5557 H       1  UNL1        0.1564
      7 C          63.4054   86.8091   15.3887 C.ar    1  UNL1        0.0516
      8 C          63.8304   86.4790   13.9885 C.ar    1  UNL1        0.0147
      9 C          63.5968   85.1033   13.4384 C.ar    1  UNL1        0.0010
     10 C          62.9380   84.0575   14.2885 C.ar    1  UNL1       -0.0014
     11 C          62.5130   84.3875   15.6887 C.ar    1  UNL1        0.0010
     12 C          62.7467   85.7634   16.2387 C.ar    1  UNL1        0.0147
     13 C          62.7044   82.6817   13.7384 C.2     1  UNL1        0.0158
     14 C          62.0268   81.6421   14.5811 C.2     1  UNL1        0.0487
     15 C          61.7931   80.2664   14.0310 C.2     1  UNL1        0.2355
     16 N          62.2370   79.9301   12.6381 N.2     1  UNL1       -0.0325
     17 C          62.9146   80.9697   11.7955 C.2     1  UNL1        0.3799
     18 N          63.4581   80.9308   10.3979 N.2     1  UNL1       -0.0106
     19 C          64.0277   82.2825   10.0844 C.2     1  UNL1        0.3351
     20 N          63.8362   83.1569   11.2881 N.2     1  UNL1       -0.2103
     21 C          63.1482   82.3455   12.3456 C.3     1  UNL1        0.2404
     22 C          65.1573   91.6626   14.7766 C.ar    1  UNL1        0.0577
     23 C          66.0967   92.6583   15.3898 C.ar    1  UNL1        0.0151
     24 C          66.7390   93.7093   14.5337 C.ar    1  UNL1        0.0076
     25 C          66.4419   93.7646   13.0645 C.ar    1  UNL1        0.0754
     26 C          65.5024   92.7688   12.4512 C.ar    1  UNL1        0.2913
     27 C          64.8601   91.7178   13.3074 C.ar    1  UNL1        0.0899
     28 N          65.2053   92.8241   10.9821 N.pl3   1  UNL1        0.0810
     29 O          66.0332   93.6921   10.0816 O.2     1  UNL1        0.0415
     30 O          64.0802   92.0112   10.4133 O.co2   1  UNL1       -0.5760
@<TRIPOS>UNITY_ATOM_ATTR
28 1
charge 1
30 1
charge -1
@<TRIPOS>BOND
     1     1     2    2
     2     2     3   am
     3     3     7    1
     4     7     8   ar
     5     8     9   ar
     6     9    10   ar
     7    10    13    1
     8    13    14    2
     9    14    15    1
    10    15    16    2
    11    16    17    1
    12    17    18    2
    13    18    19    1
    14    19    20    2
    15    20    21    1
    16    10    11   ar
    17    11    12   ar
    18     2     4   am
    19     4    22    1
    20    22    23   ar
    21    23    24   ar
    22    24    25   ar
    23    25    26   ar
    24    26    28    1
    25    28    29    2
    26    28    30    1
    27    26    27   ar
    28    12     7   ar
    29    27    22   ar
    30    21    13    1
    31    21    17    1
    32     3     5    1
    33     4     6    1
@<TRIPOS>MOLECULE
*****
 30 33 0 0 0
SMALL
GASTEIGER

@<TRIPOS>ATOM
      1 O          71.8904   78.0462   11.1694 O.2     1  UNL1       -0.2522
      2 C          72.5617   79.0245   12.0872 C.2     1  UNL1        0.3082
      3 N          72.9139   78.6188   13.4878 N.am    1  UNL1       -0.2681
      4 N          72.8807   80.4083   11.6045 N.am    1  UNL1       -0.2679
      5 H          73.3545   79.2609   14.0902 H       1  UNL1        0.1564
      6 H          73.3213   81.0504   12.2069 H       1  UNL1        0.1564
      7 C          72.5949   77.2350   13.9704 C.ar    1  UNL1        0.0516
      8 C          71.2502   76.9397   14.5661 C.ar    1  UNL1        0.0147
      9 C          70.9312   75.5559   15.0488 C.ar    1  UNL1        0.0010
     10 C          71.9568   74.4671   14.9358 C.ar    1  UNL1       -0.0014
     11 C          73.3015   74.7622   14.3402 C.ar    1  UNL1        0.0010
     12 C          73.6205   76.1462   13.8575 C.ar    1  UNL1        0.0147
     13 C          71.6378   73.0832   15.4185 C.2     1  UNL1        0.0158
     14 C          71.6678   71.9292   14.4607 C.2     1  UNL1        0.0487
     15 C          71.3488   70.5454   14.9433 C.2     1  UNL1        0.2355
     16 N          70.9997   70.3153   16.3839 N.2     1  UNL1       -0.0325
     17 C          70.9696   71.4693   17.3418 C.2     1  UNL1        0.3799
     18 N          70.6629   71.5489   18.8079 N.2     1  UNL1       -0.0106
     19 C          70.7924   72.9821   19.2313 C.2     1  UNL1        0.3351
     20 N          71.1791   73.7882   18.0269 N.2     1  UNL1       -0.2103
     21 C          71.2887   72.8532   16.8591 C.3     1  UNL1        0.2404
     22 C          72.5284   80.8140   10.2040 C.ar    1  UNL1        0.0577
     23 C          72.1822   82.2418    9.9015 C.ar    1  UNL1        0.0151
     24 C          71.8299   82.6475    8.5010 C.ar    1  UNL1        0.0076
     25 C          71.8240   81.6255    7.4031 C.ar    1  UNL1        0.0754
     26 C          72.1703   80.1977    7.7057 C.ar    1  UNL1        0.2913
     27 C          72.5225   79.7920    9.1062 C.ar    1  UNL1        0.0899
     28 N          72.1643   79.1757    6.6078 N.pl3   1  UNL1        0.0810
     29 O          73.3676   78.3085    6.3838 O.2     1  UNL1        0.0415
     30 O          70.9550   79.0207    5.7338 O.co2   1  UNL1       -0.5760
@<TRIPOS>UNITY_ATOM_ATTR
28 1
charge 1
30 1
charge -1
@<TRIPOS>BOND
     1     1     2    2
     2     2     3   am
     3     3     7    1
     4     7     8   ar
     5     8     9   ar
     6     9    10   ar
     7    10    13    1
     8    13    14    2
     9    14    15    1
    10    15    16    2
    11    16    17    1
    12    17    18    2
    13    18    19    1
    14    19    20    2
    15    20    21    1
    16    10    11   ar
    17    11    12   ar
    18     2     4   am
    19     4    22    1
    20    22    23   ar
    21    23    24   ar
    22    24    25   ar
    23    25    26   ar
    24    26    28    1
    25    28    29    2
    26    28    30    1
    27    26    27   ar
    28    12     7   ar
    29    27    22   ar
    30    21    13    1
    31    21    17    1
    32     3     5    1
    33     4     6    1
@<TRIPOS>MOLECULE
*****
 30 33 0 0 0
SMALL
GASTEIGER

@<TRIPOS>ATOM
      1 O          63.9672   87.7604   12.3126 O.2     1  UNL1       -0.2522
      2 C          63.9632   87.6806   13.8105 C.2     1  UNL1        0.3082
      3 N          64.3877   88.8660   14.6258 N.am    1  UNL1       -0.2681
      4 N          63.5348   86.4155   14.4930 N.am    1  UNL1       -0.2679
      5 H          64.3851   88.8136   15.6089 H       1  UNL1        0.1564
      6 H          63.5322   86.3631   15.4761 H       1  UNL1        0.1564
      7 C          64.8161   90.1311   13.9433 C.ar    1  UNL1        0.0516
      8 C          64.0413   90.6485   12.7677 C.ar    1  UNL1        0.0147
      9 C          64.4697   91.9136   12.0852 C.ar    1  UNL1        0.0010
     10 C          65.6730   92.6614   12.5782 C.ar    1  UNL1       -0.0014
     11 C          66.4478   92.1440   13.7538 C.ar    1  UNL1        0.0010
     12 C          66.0193   90.8788   14.4363 C.ar    1  UNL1        0.0147
     13 C          66.1014   93.9265   11.8956 C.2     1  UNL1        0.0158
     14 C          65.7526   95.2569   12.4943 C.2     1  UNL1        0.0487
     15 C          66.1810   96.5220   11.8118 C.2     1  UNL1        0.2355
     16 N          66.9582   96.4568   10.5305 N.2     1  UNL1       -0.0325
     17 C          67.3070   95.1265    9.9318 C.2     1  UNL1        0.3799
     18 N          68.0577   94.7512    8.6886 N.2     1  UNL1       -0.0106
     19 C          68.0932   93.2540    8.6028 C.2     1  UNL1        0.3351
     20 N          67.3645   92.7041    9.7930 N.2     1  UNL1       -0.2103
     21 C          66.8786   93.8613   10.6144 C.3     1  UNL1        0.2404
     22 C          63.1103   85.2300   13.6777 C.ar    1  UNL1        0.0577
     23 C          62.9002   85.3731   12.1994 C.ar    1  UNL1        0.0151
     24 C          62.4757   84.1877   11.3840 C.ar    1  UNL1        0.0076
     25 C          62.2614   82.8594   12.0470 C.ar    1  UNL1        0.0754
     26 C          62.4716   82.7163   13.5254 C.ar    1  UNL1        0.2913
     27 C          62.8961   83.9018   14.3407 C.ar    1  UNL1        0.0899
     28 N          62.2573   81.3881   14.1883 N.pl3   1  UNL1        0.0810
     29 O          60.8689   80.9375   14.5338 O.2     1  UNL1        0.0415
     30 O          63.4314   80.5102   14.5059 O.co2   1  UNL1       -0.5760
@<TRIPOS>UNITY_ATOM_ATTR
28 1
charge 1
30 1
charge -1
@<TRIPOS>BOND
     1     1     2    2
     2     2     3   am
     3     3     7    1
     4     7     8   ar
     5     8     9   ar
     6     9    10   ar
     7    10    13    1
     8    13    14    2
     9    14    15    1
    10    15    16    2
    11    16    17    1
    12    17    18    2
    13    18    19    1
    14    19    20    2
    15    20    21    1
    16    10    11   ar
    17    11    12   ar
    18     2     4   am
    19     4    22    1
    20    22    23   ar
    21    23    24   ar
    22    24    25   ar
    23    25    26   ar
    24    26    28    1
    25    28    29    2
    26    28    30    1
    27    26    27   ar
    28    12     7   ar
    29    27    22   ar
    30    21    13    1
    31    21    17    1
    32     3     5    1
    33     4     6    1
@<TRIPOS>MOLECULE
*****
 30 33 0 0 0
SMALL
GASTEIGER

@<TRIPOS>ATOM
      1 O          61.0662   90.1180    4.9947 O.2     1  UNL1       -0.2522
      2 C          59.8219   90.8733    5.3569 C.2     1  UNL1        0.3082
      3 N          59.3828   92.0396    4.5219 N.am    1  UNL1       -0.2681
      4 N          59.0167   90.4624    6.5538 N.am    1  UNL1       -0.2679
      5 H          58.5661   92.5354    4.7596 H       1  UNL1        0.1564
      6 H          58.2000   90.9581    6.7914 H       1  UNL1        0.1564
      7 C          60.1880   92.4505    3.3250 C.ar    1  UNL1        0.0516
      8 C          61.6674   92.2042    3.2957 C.ar    1  UNL1        0.0147
      9 C          62.4726   92.6152    2.0988 C.ar    1  UNL1        0.0010
     10 C          61.7984   93.2725    0.9310 C.ar    1  UNL1       -0.0014
     11 C          60.3191   93.5188    0.9603 C.ar    1  UNL1        0.0010
     12 C          59.5139   93.1078    2.1573 C.ar    1  UNL1        0.0147
     13 C          62.6036   93.6834   -0.2659 C.2     1  UNL1        0.0158
     14 C          62.2910   93.1058   -1.6144 C.2     1  UNL1        0.0487
     15 C          63.0962   93.5167   -2.8114 C.2     1  UNL1        0.2355
     16 N          64.2141   94.5053   -2.6599 N.2     1  UNL1       -0.0325
     17 C          64.5268   95.0830   -1.3113 C.2     1  UNL1        0.3799
     18 N          65.5611   96.0700   -0.8576 N.2     1  UNL1       -0.0106
     19 C          65.3951   96.2691    0.6199 C.2     1  UNL1        0.3351
     20 N          64.2582   95.4051    1.0792 N.2     1  UNL1       -0.2103
     21 C          63.7215   94.6720   -0.1144 C.3     1  UNL1        0.2404
     22 C          59.4558   89.2961    7.3887 C.ar    1  UNL1        0.0577
     23 C          58.9453   87.9195    7.0816 C.ar    1  UNL1        0.0151
     24 C          59.3843   86.7532    7.9164 C.ar    1  UNL1        0.0076
     25 C          60.3339   86.9635    9.0584 C.ar    1  UNL1        0.0754
     26 C          60.8445   88.3401    9.3655 C.ar    1  UNL1        0.2913
     27 C          60.4054   89.5065    8.5306 C.ar    1  UNL1        0.0899
     28 N          61.7941   88.5504   10.5073 N.pl3   1  UNL1        0.0810
     29 O          61.9416   87.4961   11.5641 O.2     1  UNL1        0.0415
     30 O          62.5963   89.8151   10.5926 O.co2   1  UNL1       -0.5760
@<TRIPOS>UNITY_ATOM_ATTR
28 1
charge 1
30 1
charge -1
@<TRIPOS>BOND
     1     1     2    2
     2     2     3   am
     3     3     7    1
     4     7     8   ar
     5     8     9   ar
     6     9    10   ar
     7    10    13    1
     8    13    14    2
     9    14    15    1
    10    15    16    2
    11    16    17    1
    12    17    18    2
    13    18    19    1
    14    19    20    2
    15    20    21    1
    16    10    11   ar
    17    11    12   ar
    18     2     4   am
    19     4    22    1
    20    22    23   ar
    21    23    24   ar
    22    24    25   ar
    23    25    26   ar
    24    26    28    1
    25    28    29    2
    26    28    30    1
    27    26    27   ar
    28    12     7   ar
    29    27    22   ar
    30    21    13    1
    31    21    17    1
    32     3     5    1
    33     4     6    1
@<TRIPOS>MOLECULE
*****
 30 33 0 0 0
SMALL
GASTEIGER

@<TRIPOS>ATOM
      1 O          63.8918   86.1801   11.9056 O.2     1  UNL1       -0.2522
      2 C          62.4771   86.3233   11.4281 C.2     1  UNL1        0.3082
      3 N          61.8847   87.6881   11.2369 N.am    1  UNL1       -0.2681
      4 N          61.6548   85.1019   11.1419 N.am    1  UNL1       -0.2679
      5 H          60.9561   87.7822   10.9235 H       1  UNL1        0.1564
      6 H          60.7263   85.1960   10.8285 H       1  UNL1        0.1564
      7 C          62.7069   88.9095   11.5231 C.ar    1  UNL1        0.0516
      8 C          62.8293   89.9903   10.4902 C.ar    1  UNL1        0.0147
      9 C          63.6515   91.2117   10.7764 C.ar    1  UNL1        0.0010
     10 C          64.3516   91.3523   12.0957 C.ar    1  UNL1       -0.0014
     11 C          64.2293   90.2716   13.1286 C.ar    1  UNL1        0.0010
     12 C          63.4069   89.0501   12.8423 C.ar    1  UNL1        0.0147
     13 C          65.1739   92.5738   12.3819 C.2     1  UNL1        0.0158
     14 C          65.3026   93.6509   11.3459 C.2     1  UNL1        0.0487
     15 C          66.1249   94.8723   11.6321 C.2     1  UNL1        0.2355
     16 N          66.8184   95.0167   12.9543 N.2     1  UNL1       -0.0325
     17 C          66.6897   93.9396   13.9903 C.2     1  UNL1        0.3799
     18 N          67.2539   93.8049   15.3736 N.2     1  UNL1       -0.0106
     19 C          66.7803   92.5002   15.9423 C.2     1  UNL1        0.3351
     20 N          65.9234   91.8285   14.9105 N.2     1  UNL1       -0.2103
     21 C          65.8674   92.7181   13.7041 C.3     1  UNL1        0.2404
     22 C          62.2473   83.7372   11.3331 C.ar    1  UNL1        0.0577
     23 C          63.2316   83.2005   10.3366 C.ar    1  UNL1        0.0151
     24 C          63.8240   81.8358   10.5278 C.ar    1  UNL1        0.0076
     25 C          63.4321   81.0077   11.7155 C.ar    1  UNL1        0.0754
     26 C          62.4477   81.5444   12.7120 C.ar    1  UNL1        0.2913
     27 C          61.8553   82.9092   12.5208 C.ar    1  UNL1        0.0899
     28 N          62.0558   80.7163   13.8997 N.pl3   1  UNL1        0.0810
     29 O          63.0743   79.8493   14.5786 O.2     1  UNL1        0.0415
     30 O          60.6452   80.7552   14.4086 O.co2   1  UNL1       -0.5760
@<TRIPOS>UNITY_ATOM_ATTR
28 1
charge 1
30 1
charge -1
@<TRIPOS>BOND
     1     1     2    2
     2     2     3   am
     3     3     7    1
     4     7     8   ar
     5     8     9   ar
     6     9    10   ar
     7    10    13    1
     8    13    14    2
     9    14    15    1
    10    15    16    2
    11    16    17    1
    12    17    18    2
    13    18    19    1
    14    19    20    2
    15    20    21    1
    16    10    11   ar
    17    11    12   ar
    18     2     4   am
    19     4    22    1
    20    22    23   ar
    21    23    24   ar
    22    24    25   ar
    23    25    26   ar
    24    26    28    1
    25    28    29    2
    26    28    30    1
    27    26    27   ar
    28    12     7   ar
    29    27    22   ar
    30    21    13    1
    31    21    17    1
    32     3     5    1
    33     4     6    1
@<TRIPOS>MOLECULE
*****
 30 33 0 0 0
SMALL
GASTEIGER

@<TRIPOS>ATOM
      1 O          61.3061   90.6147    5.1960 O.2     1  UNL1       -0.2522
      2 C          59.8671   91.0364    5.1559 C.2     1  UNL1        0.3082
      3 N          59.4183   92.0793    4.1755 N.am    1  UNL1       -0.2681
      4 N          58.8771   90.4153    6.0960 N.am    1  UNL1       -0.2679
      5 H          58.4739   92.3561    4.1492 H       1  UNL1        0.1564
      6 H          57.9327   90.6921    6.0697 H       1  UNL1        0.1564
      7 C          60.4083   92.7004    3.2354 C.ar    1  UNL1        0.0516
      8 C          60.0329   93.9225    2.4508 C.ar    1  UNL1        0.0147
      9 C          61.0230   94.5436    1.5106 C.ar    1  UNL1        0.0010
     10 C          62.3886   93.9426    1.3551 C.ar    1  UNL1       -0.0014
     11 C          62.7641   92.7206    2.1397 C.ar    1  UNL1        0.0010
     12 C          61.7739   92.0995    3.0799 C.ar    1  UNL1        0.0147
     13 C          63.3787   94.5638    0.4149 C.2     1  UNL1        0.0158
     14 C          64.3976   95.5350    0.9330 C.2     1  UNL1        0.0487
     15 C          65.3876   96.1561   -0.0071 C.2     1  UNL1        0.2355
     16 N          65.3588   95.8061   -1.4654 N.2     1  UNL1       -0.0325
     17 C          64.3399   94.8348   -1.9835 C.2     1  UNL1        0.3799
     18 N          64.0706   94.3013   -3.3593 N.2     1  UNL1       -0.0106
     19 C          62.9140   93.3504   -3.2694 C.2     1  UNL1        0.3351
     20 N          62.4685   93.2962   -1.8381 N.2     1  UNL1       -0.2103
     21 C          63.3498   94.2137   -1.0434 C.3     1  UNL1        0.2404
     22 C          59.3259   89.3724    7.0764 C.ar    1  UNL1        0.0577
     23 C          58.9833   87.9303    6.8466 C.ar    1  UNL1        0.0151
     24 C          59.4321   86.8874    7.8269 C.ar    1  UNL1        0.0076
     25 C          60.2234   87.2866    9.0370 C.ar    1  UNL1        0.0754
     26 C          60.5660   88.7289    9.2668 C.ar    1  UNL1        0.2913
     27 C          60.1172   89.7718    8.2864 C.ar    1  UNL1        0.0899
     28 N          61.3573   89.1281   10.4769 N.pl3   1  UNL1        0.0810
     29 O          60.7601   88.9825   11.8451 O.2     1  UNL1        0.0415
     30 O          62.7459   89.6731   10.3188 O.co2   1  UNL1       -0.5760
@<TRIPOS>UNITY_ATOM_ATTR
28 1
charge 1
30 1
charge -1
@<TRIPOS>BOND
     1     1     2    2
     2     2     3   am
     3     3     7    1
     4     7     8   ar
     5     8     9   ar
     6     9    10   ar
     7    10    13    1
     8    13    14    2
     9    14    15    1
    10    15    16    2
    11    16    17    1
    12    17    18    2
    13    18    19    1
    14    19    20    2
    15    20    21    1
    16    10    11   ar
    17    11    12   ar
    18     2     4   am
    19     4    22    1
    20    22    23   ar
    21    23    24   ar
    22    24    25   ar
    23    25    26   ar
    24    26    28    1
    25    28    29    2
    26    28    30    1
    27    26    27   ar
    28    12     7   ar
    29    27    22   ar
    30    21    13    1
    31    21    17    1
    32     3     5    1
    33     4     6    1
