@<TRIPOS>MOLECULE
*****
 45 50 0 0 0
SMALL
GASTEIGER

@<TRIPOS>ATOM
      1 C          59.7549   90.7209    5.7478 C.ar    1  UNL1        0.1348
      2 C          58.9159   89.4884    5.9118 C.ar    1  UNL1        0.0346
      3 C          59.0507   88.6482    7.1470 C.ar    1  UNL1        0.0065
      4 C          60.0247   89.0403    8.2182 C.ar    1  UNL1        0.0432
      5 C          60.8638   90.2728    8.0542 C.ar    1  UNL1        0.1256
      6 N          60.7289   91.1131    6.8190 N.ar    1  UNL1       -0.2222
      7 C          60.1596   88.2001    9.4534 C.ar    1  UNL1        0.0850
      8 C          60.6777   86.7936    9.5107 C.ar    1  UNL1        0.1005
      9 N          60.6384   86.3430   10.9409 N.ar    1  UNL1       -0.2264
     10 C          60.0960   87.4710   11.7675 C.ar    1  UNL1        0.1474
     11 C          59.8333   87.6014   13.2386 C.ar    1  UNL1        0.0332
     12 C          59.2747   88.8795   13.7903 C.ar    1  UNL1       -0.0174
     13 C          59.0120   89.0099   15.2613 C.3     1  UNL1        0.0312
     14 C          58.9788   90.0273   12.8710 C.ar    1  UNL1        0.0149
     15 C          59.2415   89.8969   11.4000 C.ar    1  UNL1        0.0811
     16 N          59.8001   88.6188   10.8482 N.ar    1  UNL1       -0.2888
     17 C          61.1518   85.9803    8.3429 C.ar    1  UNL1        0.0383
     18 C          62.6030   85.6213    8.2188 C.ar    1  UNL1        0.0043
     19 C          63.0772   84.8080    7.0509 C.ar    1  UNL1        0.0148
     20 C          62.1002   84.3539    6.0072 C.ar    1  UNL1        0.0594
     21 C          62.5744   83.5407    4.8393 C.3     1  UNL1        0.0521
     22 N          60.6492   84.7130    6.1313 N.ar    1  UNL1       -0.2481
     23 C          60.1750   85.5262    7.2992 C.ar    1  UNL1        0.0999
     24 C          60.8317   91.8851    3.6899 C.2     1  UNL1        0.2414
     25 O          62.1783   91.3688    4.1023 O.2     1  UNL1       -0.2733
     26 N          59.6200   91.5612    4.5126 N.am    1  UNL1       -0.2682
     27 H          58.7362   91.9000    4.2419 H       1  UNL1        0.1563
     28 C          60.6968   92.7254    2.4547 C.3     1  UNL1        0.1319
     29 C          61.9126   93.3478    1.8345 C.3     1  UNL1        0.0270
     30 C          59.2356   93.4027    0.4160 C.3     1  UNL1        0.0862
     31 N          59.3462   92.9433    1.8396 N.3     1  UNL1       -0.2902
     32 H          58.8475   92.0557    1.9021 H       1  UNL1        0.1237
     33 C          61.8378   90.6651    9.1255 C.1     1  UNL1       -0.0404
     34 C          62.8117   91.0573   10.1967 C.1     1  UNL1       -0.0583
     35 C          63.7857   91.4495   11.2679 C.ar    1  UNL1        0.0420
     36 C          65.0755   92.1210   10.8996 C.ar    1  UNL1        0.0083
     37 C          66.0494   92.5132   11.9708 C.ar    1  UNL1        0.0018
     38 C          65.7336   92.2340   13.4104 C.ar    1  UNL1        0.0137
     39 C          66.7076   92.6262   14.4816 C.ar    1  UNL1        0.0594
     40 C          67.9974   93.2976   14.1133 C.3     1  UNL1        0.0521
     41 N          66.3918   92.3470   15.9212 N.ar    1  UNL1       -0.2481
     42 C          65.1020   91.6756   16.2895 C.ar    1  UNL1        0.0984
     43 C          64.1281   91.2834   15.2183 C.ar    1  UNL1        0.0207
     44 C          64.4439   91.5626   13.7787 C.ar    1  UNL1        0.0033
     45 C          63.4699   91.1703   12.7075 C.ar    1  UNL1        0.0083
@<TRIPOS>BOND
     1    30    31    1
     2    31    28    1
     3    28    29    1
     4    28    24    1
     5    24    25    2
     6    24    26   am
     7    26     1    1
     8     1     2   ar
     9     2     3   ar
    10     3     4   ar
    11     4     7    1
    12     7     8   ar
    13     8    17    1
    14    17    18   ar
    15    18    19   ar
    16    19    20   ar
    17    20    21    1
    18    20    22   ar
    19    22    23   ar
    20     8     9   ar
    21     9    10   ar
    22    10    11   ar
    23    11    12   ar
    24    12    13    1
    25    12    14   ar
    26    14    15   ar
    27    15    16   ar
    28     4     5   ar
    29     5    33    1
    30    33    34    3
    31    34    35    1
    32    35    36   ar
    33    36    37   ar
    34    37    38   ar
    35    38    39   ar
    36    39    40    1
    37    39    41   ar
    38    41    42   ar
    39    42    43   ar
    40    43    44   ar
    41    44    45   ar
    42     5     6   ar
    43     6     1   ar
    44    16     7   ar
    45    45    35   ar
    46    23    17   ar
    47    16    10   ar
    48    44    38   ar
    49    31    32    1
    50    26    27    1
@<TRIPOS>MOLECULE
*****
 45 50 0 0 0
SMALL
GASTEIGER

@<TRIPOS>ATOM
      1 C          59.4801   89.9706    7.5308 C.ar    1  UNL1        0.1348
      2 C          59.2716   88.4915    7.3935 C.ar    1  UNL1        0.0346
      3 C          60.0772   87.5399    8.2275 C.ar    1  UNL1        0.0065
      4 C          61.0912   88.0674    9.1988 C.ar    1  UNL1        0.0432
      5 C          61.2997   89.5464    9.3361 C.ar    1  UNL1        0.1256
      6 N          60.4941   90.4980    8.5021 N.ar    1  UNL1       -0.2222
      7 C          61.8968   87.1158   10.0328 C.ar    1  UNL1        0.0850
      8 C          62.4333   85.7883    9.5857 C.ar    1  UNL1        0.1005
      9 N          63.1754   85.1766   10.7368 N.ar    1  UNL1       -0.2264
     10 C          63.0976   86.1262   11.8954 C.ar    1  UNL1        0.1474
     11 C          63.6442   86.0544   13.2905 C.ar    1  UNL1        0.0332
     12 C          63.4005   87.1810   14.2503 C.ar    1  UNL1       -0.0174
     13 C          63.9471   87.1092   15.6453 C.3     1  UNL1        0.0312
     14 C          62.6103   88.3795   13.8152 C.ar    1  UNL1        0.0149
     15 C          62.0638   88.4513   12.4202 C.ar    1  UNL1        0.0811
     16 N          62.3074   87.3246   11.4603 N.ar    1  UNL1       -0.2888
     17 C          62.2584   85.1792    8.2261 C.ar    1  UNL1        0.0383
     18 C          63.4609   84.8382    7.3966 C.ar    1  UNL1        0.0043
     19 C          63.2860   84.2292    6.0370 C.ar    1  UNL1        0.0148
     20 C          61.9086   83.9612    5.5068 C.ar    1  UNL1        0.0594
     21 C          61.7337   83.3522    4.1472 C.3     1  UNL1        0.0521
     22 N          60.7062   84.3022    6.3362 N.ar    1  UNL1       -0.2481
     23 C          60.8811   84.9112    7.6958 C.ar    1  UNL1        0.0999
     24 C          59.1392   91.2902    5.3190 C.2     1  UNL1        0.2414
     25 O          60.4096   90.7067    4.7750 O.2     1  UNL1       -0.2733
     26 N          58.6745   90.9221    6.6969 N.am    1  UNL1       -0.2682
     27 H          57.8408   91.3051    7.0538 H       1  UNL1        0.1563
     28 C          58.3336   92.2418    4.4850 C.3     1  UNL1        0.1319
     29 C          56.8354   92.1688    4.5000 C.3     1  UNL1        0.0270
     30 C          59.7148   92.8501    2.3702 C.3     1  UNL1        0.0862
     31 N          59.0262   93.2663    3.6361 N.3     1  UNL1       -0.2902
     32 H          58.3223   93.9569    3.3751 H       1  UNL1        0.1237
     33 C          62.3138   90.0740   10.3075 C.1     1  UNL1       -0.0404
     34 C          63.3278   90.6015   11.2787 C.1     1  UNL1       -0.0583
     35 C          64.3419   91.1290   12.2501 C.ar    1  UNL1        0.0420
     36 C          65.6964   91.5522   11.7643 C.ar    1  UNL1        0.0083
     37 C          66.7104   92.0797   12.7356 C.ar    1  UNL1        0.0018
     38 C          66.3699   92.1840   14.1927 C.ar    1  UNL1        0.0137
     39 C          67.3839   92.7116   15.1641 C.ar    1  UNL1        0.0594
     40 C          68.7385   93.1347   14.6783 C.3     1  UNL1        0.0521
     41 N          67.0433   92.8159   16.6212 N.ar    1  UNL1       -0.2481
     42 C          65.6887   92.3927   17.1069 C.ar    1  UNL1        0.0984
     43 C          64.6747   91.8652   16.1356 C.ar    1  UNL1        0.0207
     44 C          65.0153   91.7609   14.6785 C.ar    1  UNL1        0.0033
     45 C          64.0013   91.2334   13.7072 C.ar    1  UNL1        0.0083
@<TRIPOS>BOND
     1    30    31    1
     2    31    28    1
     3    28    29    1
     4    28    24    1
     5    24    25    2
     6    24    26   am
     7    26     1    1
     8     1     2   ar
     9     2     3   ar
    10     3     4   ar
    11     4     7    1
    12     7     8   ar
    13     8    17    1
    14    17    18   ar
    15    18    19   ar
    16    19    20   ar
    17    20    21    1
    18    20    22   ar
    19    22    23   ar
    20     8     9   ar
    21     9    10   ar
    22    10    11   ar
    23    11    12   ar
    24    12    13    1
    25    12    14   ar
    26    14    15   ar
    27    15    16   ar
    28     4     5   ar
    29     5    33    1
    30    33    34    3
    31    34    35    1
    32    35    36   ar
    33    36    37   ar
    34    37    38   ar
    35    38    39   ar
    36    39    40    1
    37    39    41   ar
    38    41    42   ar
    39    42    43   ar
    40    43    44   ar
    41    44    45   ar
    42     5     6   ar
    43     6     1   ar
    44    16     7   ar
    45    45    35   ar
    46    23    17   ar
    47    16    10   ar
    48    44    38   ar
    49    31    32    1
    50    26    27    1
@<TRIPOS>MOLECULE
*****
 45 50 0 0 0
SMALL
GASTEIGER

@<TRIPOS>ATOM
      1 C          60.7872   87.8479    8.8370 C.ar    1  UNL1        0.1348
      2 C          60.4683   86.5215    9.4605 C.ar    1  UNL1        0.0346
      3 C          61.0753   86.1478   10.7803 C.ar    1  UNL1        0.0065
      4 C          62.0012   87.1006   11.4766 C.ar    1  UNL1        0.0432
      5 C          62.3202   88.4270   10.8531 C.ar    1  UNL1        0.1256
      6 N          61.7131   88.8007    9.5333 N.ar    1  UNL1       -0.2222
      7 C          62.6082   86.7269   12.7964 C.ar    1  UNL1        0.0850
      8 C          63.1559   85.3801   13.1653 C.ar    1  UNL1        0.1005
      9 N          63.6603   85.4552   14.5760 N.ar    1  UNL1       -0.2264
     10 C          63.4244   86.8486   15.0789 C.ar    1  UNL1        0.1474
     11 C          63.7176   87.5032   16.3963 C.ar    1  UNL1        0.0332
     12 C          63.3606   88.9437   16.6139 C.ar    1  UNL1       -0.0174
     13 C          63.6538   89.5984   17.9312 C.3     1  UNL1        0.0312
     14 C          62.7104   89.7297   15.5141 C.ar    1  UNL1        0.0149
     15 C          62.4171   89.0751   14.1967 C.ar    1  UNL1        0.0811
     16 N          62.7742   87.6345   13.9791 N.ar    1  UNL1       -0.2888
     17 C          63.1928   84.1704   12.2791 C.ar    1  UNL1        0.0383
     18 C          63.9041   84.2286   10.9597 C.ar    1  UNL1        0.0043
     19 C          63.9410   83.0189   10.0735 C.ar    1  UNL1        0.0148
     20 C          63.2665   81.7511   10.5066 C.ar    1  UNL1        0.0594
     21 C          63.3033   80.5414    9.6204 C.3     1  UNL1        0.0521
     22 N          62.5552   81.6929   11.8259 N.ar    1  UNL1       -0.2481
     23 C          62.5184   82.9026   12.7121 C.ar    1  UNL1        0.0999
     24 C          59.6999   89.6230    7.2825 C.2     1  UNL1        0.2414
     25 O          59.8266   90.6509    8.3676 O.2     1  UNL1       -0.2733
     26 N          60.1802   88.2216    7.5172 N.am    1  UNL1       -0.2682
     27 H          60.0970   87.5469    6.8050 H       1  UNL1        0.1563
     28 C          59.0929   89.9967    5.9626 C.3     1  UNL1        0.1319
     29 C          59.9686   90.4771    4.8435 C.3     1  UNL1        0.0270
     30 C          56.8462   91.0453    5.1862 C.3     1  UNL1        0.0862
     31 N          57.6102   89.8900    5.7619 N.3     1  UNL1       -0.2902
     32 H          57.4535   89.0952    5.1422 H       1  UNL1        0.1237
     33 C          63.2461   89.3798   11.5493 C.1     1  UNL1       -0.0404
     34 C          64.1721   90.3326   12.2456 C.1     1  UNL1       -0.0583
     35 C          65.0981   91.2854   12.9418 C.ar    1  UNL1        0.0420
     36 C          65.1414   92.7265   12.5280 C.ar    1  UNL1        0.0083
     37 C          66.0673   93.6793   13.2242 C.ar    1  UNL1        0.0018
     38 C          66.9500   93.1910   14.3344 C.ar    1  UNL1        0.0137
     39 C          67.8760   94.1438   15.0306 C.ar    1  UNL1        0.0594
     40 C          67.9192   95.5849   14.6168 C.3     1  UNL1        0.0521
     41 N          68.7587   93.6555   16.1408 N.ar    1  UNL1       -0.2481
     42 C          68.7154   92.2143   16.5546 C.ar    1  UNL1        0.0984
     43 C          67.7894   91.2615   15.8584 C.ar    1  UNL1        0.0207
     44 C          66.9067   91.7499   14.7482 C.ar    1  UNL1        0.0033
     45 C          65.9808   90.7971   14.0520 C.ar    1  UNL1        0.0083
@<TRIPOS>BOND
     1    30    31    1
     2    31    28    1
     3    28    29    1
     4    28    24    1
     5    24    25    2
     6    24    26   am
     7    26     1    1
     8     1     2   ar
     9     2     3   ar
    10     3     4   ar
    11     4     7    1
    12     7     8   ar
    13     8    17    1
    14    17    18   ar
    15    18    19   ar
    16    19    20   ar
    17    20    21    1
    18    20    22   ar
    19    22    23   ar
    20     8     9   ar
    21     9    10   ar
    22    10    11   ar
    23    11    12   ar
    24    12    13    1
    25    12    14   ar
    26    14    15   ar
    27    15    16   ar
    28     4     5   ar
    29     5    33    1
    30    33    34    3
    31    34    35    1
    32    35    36   ar
    33    36    37   ar
    34    37    38   ar
    35    38    39   ar
    36    39    40    1
    37    39    41   ar
    38    41    42   ar
    39    42    43   ar
    40    43    44   ar
    41    44    45   ar
    42     5     6   ar
    43     6     1   ar
    44    16     7   ar
    45    45    35   ar
    46    23    17   ar
    47    16    10   ar
    48    44    38   ar
    49    31    32    1
    50    26    27    1
@<TRIPOS>MOLECULE
*****
 45 50 0 0 0
SMALL
GASTEIGER

@<TRIPOS>ATOM
      1 C          61.0121   90.1158    9.3082 C.ar    1  UNL1        0.1348
      2 C          61.5678   91.0273   10.3620 C.ar    1  UNL1        0.0346
      3 C          62.3076   90.4549   11.5346 C.ar    1  UNL1        0.0065
      4 C          62.4918   88.9710   11.6535 C.ar    1  UNL1        0.0432
      5 C          61.9361   88.0595   10.5997 C.ar    1  UNL1        0.1256
      6 N          61.1963   88.6319    9.4271 N.ar    1  UNL1       -0.2222
      7 C          63.2316   88.3986   12.8261 C.ar    1  UNL1        0.0850
      8 C          64.3179   89.0823   13.6023 C.ar    1  UNL1        0.1005
      9 N          64.7727   88.1482   14.6843 N.ar    1  UNL1       -0.2264
     10 C          63.9675   86.8873   14.5768 C.ar    1  UNL1        0.1474
     11 C          63.9784   85.6182   15.3763 C.ar    1  UNL1        0.0332
     12 C          63.0370   84.5038   15.0274 C.ar    1  UNL1       -0.0174
     13 C          63.0479   83.2347   15.8268 C.3     1  UNL1        0.0312
     14 C          62.0845   84.6585   13.8789 C.ar    1  UNL1        0.0149
     15 C          62.0735   85.9276   13.0794 C.ar    1  UNL1        0.0811
     16 N          63.0150   87.0420   13.4284 N.ar    1  UNL1       -0.2888
     17 C          64.8552   90.4584   13.3422 C.ar    1  UNL1        0.0383
     18 C          64.8888   90.9983   11.9430 C.ar    1  UNL1        0.0043
     19 C          65.4261   92.3745   11.6829 C.ar    1  UNL1        0.0148
     20 C          65.9296   93.2107   12.8218 C.ar    1  UNL1        0.0594
     21 C          66.4669   94.5868   12.5617 C.3     1  UNL1        0.0521
     22 N          65.8960   92.6708   14.2209 N.ar    1  UNL1       -0.2481
     23 C          65.3587   91.2946   14.4810 C.ar    1  UNL1        0.0999
     24 C          59.6374   89.7737    7.1304 C.2     1  UNL1        0.2414
     25 O          59.7422   88.2867    7.2978 O.2     1  UNL1       -0.2733
     26 N          60.2723   90.6882    8.1356 N.am    1  UNL1       -0.2682
     27 H          60.2035   91.6641    8.0258 H       1  UNL1        0.1563
     28 C          58.8976   90.3461    5.9578 C.3     1  UNL1        0.1319
     29 C          59.6499   91.0489    4.8668 C.3     1  UNL1        0.0270
     30 C          56.6082   91.2085    5.0832 C.3     1  UNL1        0.0862
     31 N          57.4055   90.2158    5.8762 N.3     1  UNL1       -0.2902
     32 H          57.2115   89.2970    5.4779 H       1  UNL1        0.1237
     33 C          62.1203   86.5756   10.7185 C.1     1  UNL1       -0.0404
     34 C          62.3045   85.0917   10.8373 C.1     1  UNL1       -0.0583
     35 C          62.4886   83.6078   10.9561 C.ar    1  UNL1        0.0420
     36 C          63.0325   82.8244    9.7984 C.ar    1  UNL1        0.0083
     37 C          63.2166   81.3406    9.9172 C.ar    1  UNL1        0.0018
     38 C          62.8569   80.6400   11.1939 C.ar    1  UNL1        0.0137
     39 C          63.0410   79.1561   11.3127 C.ar    1  UNL1        0.0594
     40 C          63.5849   78.3727   10.1549 C.3     1  UNL1        0.0521
     41 N          62.6813   78.4555   12.5894 N.ar    1  UNL1       -0.2481
     42 C          62.1374   79.2390   13.7472 C.ar    1  UNL1        0.0984
     43 C          61.9532   80.7228   13.6283 C.ar    1  UNL1        0.0207
     44 C          62.3130   81.4234   12.3517 C.ar    1  UNL1        0.0033
     45 C          62.1289   82.9072   12.2328 C.ar    1  UNL1        0.0083
@<TRIPOS>BOND
     1    30    31    1
     2    31    28    1
     3    28    29    1
     4    28    24    1
     5    24    25    2
     6    24    26   am
     7    26     1    1
     8     1     2   ar
     9     2     3   ar
    10     3     4   ar
    11     4     7    1
    12     7     8   ar
    13     8    17    1
    14    17    18   ar
    15    18    19   ar
    16    19    20   ar
    17    20    21    1
    18    20    22   ar
    19    22    23   ar
    20     8     9   ar
    21     9    10   ar
    22    10    11   ar
    23    11    12   ar
    24    12    13    1
    25    12    14   ar
    26    14    15   ar
    27    15    16   ar
    28     4     5   ar
    29     5    33    1
    30    33    34    3
    31    34    35    1
    32    35    36   ar
    33    36    37   ar
    34    37    38   ar
    35    38    39   ar
    36    39    40    1
    37    39    41   ar
    38    41    42   ar
    39    42    43   ar
    40    43    44   ar
    41    44    45   ar
    42     5     6   ar
    43     6     1   ar
    44    16     7   ar
    45    45    35   ar
    46    23    17   ar
    47    16    10   ar
    48    44    38   ar
    49    31    32    1
    50    26    27    1
