@<TRIPOS>MOLECULE
*****
 32 35 0 0 0
SMALL
GASTEIGER

@<TRIPOS>ATOM
      1 C          63.1385   85.2089   12.2315 C.ar    1  UNL1        0.0895
      2 C          63.4804   84.0010   11.4105 C.ar    1  UNL1        0.1062
      3 N          63.3094   84.0339    9.9206 N.ar    1  UNL1       -0.2271
      4 C          62.7966   85.2747    9.2518 C.ar    1  UNL1        0.1558
      5 C          62.4548   86.4826   10.0728 C.ar    1  UNL1        0.0529
      6 C          62.6257   86.4497   11.5626 C.ar    1  UNL1        0.0793
      7 C          63.3094   85.1760   13.7214 C.2     1  UNL1        0.2676
      8 O          64.5232   85.7927   14.3508 O.2     1  UNL1       -0.2683
      9 C          62.3601   83.0630   14.8977 C.3     1  UNL1        0.1388
     10 N          62.2666   84.5263   14.5818 N.am    1  UNL1       -0.1997
     11 N          62.6257   85.3076    7.7619 N.am    1  UNL1       -0.1603
     12 C          61.2500   85.2941    7.1643 C.2     1  UNL1        0.2464
     13 O          60.8840   84.2536    6.1476 O.2     1  UNL1       -0.2730
     14 C          60.2401   86.3210    7.5834 C.3     1  UNL1        0.0786
     15 C          59.9113   87.7206    8.0111 C.3     1  UNL1        0.0096
     16 C          58.8197   86.6999    7.8817 C.3     1  UNL1        0.0096
     17 N          62.2838   87.6577   12.3836 N.pl3   1  UNL1       -0.2091
     18 C          62.8921   88.9877   12.0504 C.ar    1  UNL1        0.1044
     19 C          62.5214   89.6833   10.7742 C.ar    1  UNL1        0.0196
     20 C          63.1298   91.0133   10.4409 C.ar    1  UNL1        0.0016
     21 C          64.1087   91.6477   11.3839 C.ar    1  UNL1        0.0062
     22 C          64.4793   90.9521   12.6602 C.ar    1  UNL1        0.0710
     23 C          63.8710   89.6221   12.9934 C.ar    1  UNL1        0.1567
     24 C          65.4582   91.5865   13.6031 C.ar    1  UNL1        0.1654
     25 N          66.8939   91.7459   13.1986 N.ar    1  UNL1       -0.2226
     26 C          67.8728   92.3803   14.1416 C.ar    1  UNL1        0.1317
     27 C          67.4161   92.8553   15.4891 C.ar    1  UNL1        0.1783
     28 F          68.3950   93.4896   16.4321 F       1  UNL1       -0.2009
     29 C          65.9805   92.6959   15.8937 C.ar    1  UNL1        0.1317
     30 N          65.0015   92.0615   14.9507 N.ar    1  UNL1       -0.2226
     31 O          64.2417   88.9265   14.2696 O.3     1  UNL1       -0.4700
     32 C          63.4454   89.1729   15.5167 C.3     1  UNL1        0.2525
@<TRIPOS>BOND
     1     9    10    1
     2    10     7   am
     3     7     8    2
     4     7     1    1
     5     1     2   ar
     6     2     3   ar
     7     3     4   ar
     8     4    11    1
     9    11    12   am
    10    12    13    2
    11    12    14    1
    12    14    15    1
    13    15    16    1
    14     4     5   ar
    15     5     6   ar
    16     6    17    1
    17    17    18    1
    18    18    19   ar
    19    19    20   ar
    20    20    21   ar
    21    21    22   ar
    22    22    24    1
    23    24    25   ar
    24    25    26   ar
    25    26    27   ar
    26    27    28    1
    27    27    29   ar
    28    29    30   ar
    29    22    23   ar
    30    23    31    1
    31    31    32    1
    32     6     1   ar
    33    23    18   ar
    34    16    14    1
    35    30    24   ar
@<TRIPOS>MOLECULE
*****
 32 35 0 0 0
SMALL
GASTEIGER

@<TRIPOS>ATOM
      1 C          61.0064   87.8574   10.2770 C.ar    1  UNL1        0.0895
      2 C          60.9780   86.5057    9.6273 C.ar    1  UNL1        0.1062
      3 N          61.7329   85.3633   10.2395 N.ar    1  UNL1       -0.2271
      4 C          62.5163   85.5725   11.5014 C.ar    1  UNL1        0.1558
      5 C          62.5448   86.9241   12.1511 C.ar    1  UNL1        0.0529
      6 C          61.7898   88.0666   11.5389 C.ar    1  UNL1        0.0793
      7 C          60.2515   88.9999    9.6648 C.2     1  UNL1        0.2676
      8 O          59.5613   89.9998   10.5443 O.2     1  UNL1       -0.2683
      9 C          59.0914   88.4673    7.4019 C.3     1  UNL1        0.1388
     10 N          60.1867   89.1424    8.1730 N.am    1  UNL1       -0.1997
     11 N          63.2713   84.4300   12.1136 N.am    1  UNL1       -0.1603
     12 C          62.7418   83.7547   13.3439 C.2     1  UNL1        0.2464
     13 O          62.5140   84.5485   14.5961 O.2     1  UNL1       -0.2730
     14 C          62.4402   82.2855   13.3220 C.3     1  UNL1        0.0786
     15 C          61.5513   81.1362   13.6947 C.3     1  UNL1        0.0096
     16 C          62.8067   80.8901   12.9115 C.3     1  UNL1        0.0096
     17 N          61.8183   89.4183   12.1887 N.pl3   1  UNL1       -0.2091
     18 C          62.9183   90.3844   11.8621 C.ar    1  UNL1        0.1044
     19 C          62.9906   91.0056   10.4987 C.ar    1  UNL1        0.0196
     20 C          64.0906   91.9718   10.1722 C.ar    1  UNL1        0.0016
     21 C          65.1182   92.3167   11.2090 C.ar    1  UNL1        0.0062
     22 C          65.0459   91.6954   12.5724 C.ar    1  UNL1        0.0710
     23 C          63.9459   90.7293   12.8990 C.ar    1  UNL1        0.1567
     24 C          66.0735   92.0403   13.6092 C.ar    1  UNL1        0.1654
     25 N          65.6421   92.4321   14.9915 N.ar    1  UNL1       -0.2226
     26 C          66.6697   92.7770   16.0283 C.ar    1  UNL1        0.1317
     27 C          68.1287   92.7300   15.6830 C.ar    1  UNL1        0.1783
     28 F          69.1563   93.0749   16.7198 F       1  UNL1       -0.2009
     29 C          68.5601   92.3382   14.3009 C.ar    1  UNL1        0.1317
     30 N          67.5324   91.9933   13.2639 N.ar    1  UNL1       -0.2226
     31 O          63.8736   90.1081   14.2624 O.3     1  UNL1       -0.4700
     32 C          64.4768   88.7561   14.5035 C.3     1  UNL1        0.2525
@<TRIPOS>BOND
     1     9    10    1
     2    10     7   am
     3     7     8    2
     4     7     1    1
     5     1     2   ar
     6     2     3   ar
     7     3     4   ar
     8     4    11    1
     9    11    12   am
    10    12    13    2
    11    12    14    1
    12    14    15    1
    13    15    16    1
    14     4     5   ar
    15     5     6   ar
    16     6    17    1
    17    17    18    1
    18    18    19   ar
    19    19    20   ar
    20    20    21   ar
    21    21    22   ar
    22    22    24    1
    23    24    25   ar
    24    25    26   ar
    25    26    27   ar
    26    27    28    1
    27    27    29   ar
    28    29    30   ar
    29    22    23   ar
    30    23    31    1
    31    31    32    1
    32     6     1   ar
    33    23    18   ar
    34    16    14    1
    35    30    24   ar
@<TRIPOS>MOLECULE
*****
 32 35 0 0 0
SMALL
GASTEIGER

@<TRIPOS>ATOM
      1 C          63.5517   90.0262   15.8161 C.ar    1  UNL1        0.0895
      2 C          64.0760   91.1658   16.6385 C.ar    1  UNL1        0.1062
      3 N          65.0314   92.1508   16.0325 N.ar    1  UNL1       -0.2271
      4 C          65.4624   91.9960   14.6041 C.ar    1  UNL1        0.1558
      5 C          64.9381   90.8564   13.7818 C.ar    1  UNL1        0.0529
      6 C          63.9827   89.8715   14.3878 C.ar    1  UNL1        0.0793
      7 C          62.5963   89.0413   16.4221 C.2     1  UNL1        0.2676
      8 O          61.1303   89.1342   16.1184 O.2     1  UNL1       -0.2683
      9 C          62.3444   86.6798   17.4754 C.3     1  UNL1        0.1388
     10 N          63.1069   87.9635   17.3318 N.am    1  UNL1       -0.1997
     11 N          66.4178   92.9810   13.9981 N.am    1  UNL1       -0.1603
     12 C          67.3252   92.5562   12.8819 C.2     1  UNL1        0.2464
     13 O          68.6576   91.9406   13.1914 O.2     1  UNL1       -0.2730
     14 C          66.9002   92.7470   11.4560 C.3     1  UNL1        0.0786
     15 C          65.8400   93.0871   10.4509 C.3     1  UNL1        0.0096
     16 C          67.2245   92.7374    9.9915 C.3     1  UNL1        0.0096
     17 N          63.4584   88.7319   13.5653 N.pl3   1  UNL1       -0.2091
     18 C          62.7867   89.0018   12.2516 C.ar    1  UNL1        0.1044
     19 C          62.3149   90.3867   11.9210 C.ar    1  UNL1        0.0196
     20 C          61.6432   90.6566   10.6072 C.ar    1  UNL1        0.0016
     21 C          61.4433   89.5416    9.6240 C.ar    1  UNL1        0.0062
     22 C          61.9151   88.1566    9.9546 C.ar    1  UNL1        0.0710
     23 C          62.5868   87.8867   11.2683 C.ar    1  UNL1        0.1567
     24 C          61.7153   87.0416    8.9714 C.ar    1  UNL1        0.1654
     25 N          62.8612   86.1417    8.6147 N.ar    1  UNL1       -0.2226
     26 C          62.6613   85.0267    7.6316 C.ar    1  UNL1        0.1317
     27 C          61.3156   84.8114    7.0050 C.ar    1  UNL1        0.1783
     28 F          61.1157   83.6964    6.0219 F       1  UNL1       -0.2009
     29 C          60.1696   85.7112    7.3617 C.ar    1  UNL1        0.1317
     30 N          60.3695   86.8263    8.3449 N.ar    1  UNL1       -0.2226
     31 O          63.0586   86.5017   11.5989 O.3     1  UNL1       -0.4700
     32 C          62.0688   85.4470   11.9960 C.3     1  UNL1        0.2525
@<TRIPOS>BOND
     1     9    10    1
     2    10     7   am
     3     7     8    2
     4     7     1    1
     5     1     2   ar
     6     2     3   ar
     7     3     4   ar
     8     4    11    1
     9    11    12   am
    10    12    13    2
    11    12    14    1
    12    14    15    1
    13    15    16    1
    14     4     5   ar
    15     5     6   ar
    16     6    17    1
    17    17    18    1
    18    18    19   ar
    19    19    20   ar
    20    20    21   ar
    21    21    22   ar
    22    22    24    1
    23    24    25   ar
    24    25    26   ar
    25    26    27   ar
    26    27    28    1
    27    27    29   ar
    28    29    30   ar
    29    22    23   ar
    30    23    31    1
    31    31    32    1
    32     6     1   ar
    33    23    18   ar
    34    16    14    1
    35    30    24   ar
@<TRIPOS>MOLECULE
*****
 32 35 0 0 0
SMALL
GASTEIGER

@<TRIPOS>ATOM
      1 C          62.9644   90.2281   10.9270 C.ar    1  UNL1        0.0895
      2 C          63.6559   91.4218   10.3382 C.ar    1  UNL1        0.1062
      3 N          64.5567   92.2637   11.1925 N.ar    1  UNL1       -0.2271
      4 C          64.7661   91.9118   12.6355 C.ar    1  UNL1        0.1558
      5 C          64.0746   90.7180   13.2242 C.ar    1  UNL1        0.0529
      6 C          63.1737   89.8762   12.3700 C.ar    1  UNL1        0.0793
      7 C          62.0635   89.3862   10.0727 C.2     1  UNL1        0.2676
      8 O          62.5932   88.1424    9.4230 O.2     1  UNL1       -0.2683
      9 C          59.8806   90.4708   10.9719 C.3     1  UNL1        0.1388
     10 N          60.6330   89.7882    9.8682 N.am    1  UNL1       -0.1997
     11 N          65.6670   92.7536   13.4897 N.am    1  UNL1       -0.1603
     12 C          67.1424   92.4845   13.5160 C.2     1  UNL1        0.2464
     13 O          67.8517   92.0702   12.2608 O.2     1  UNL1       -0.2730
     14 C          67.9085   92.6296   14.7973 C.3     1  UNL1        0.0786
     15 C          68.8870   93.3845   15.6474 C.3     1  UNL1        0.0096
     16 C          68.2571   92.1261   16.1666 C.3     1  UNL1        0.0096
     17 N          62.4822   88.6823   12.9588 N.pl3   1  UNL1       -0.2091
     18 C          63.2891   87.5410   13.5031 C.ar    1  UNL1        0.1044
     19 C          64.4048   87.8053   14.4703 C.ar    1  UNL1        0.0196
     20 C          65.2117   86.6640   15.0146 C.ar    1  UNL1        0.0016
     21 C          64.9029   85.2583   14.5917 C.ar    1  UNL1        0.0062
     22 C          63.7872   84.9940   13.6246 C.ar    1  UNL1        0.0710
     23 C          62.9803   86.1353   13.0803 C.ar    1  UNL1        0.1567
     24 C          63.4785   83.5884   13.2017 C.ar    1  UNL1        0.1654
     25 N          64.1900   82.9851   12.0270 N.ar    1  UNL1       -0.2226
     26 C          63.8812   81.5795   11.6041 C.ar    1  UNL1        0.1317
     27 C          62.8609   80.7771   12.3559 C.ar    1  UNL1        0.1783
     28 F          62.5522   79.3715   11.9330 F       1  UNL1       -0.2009
     29 C          62.1494   81.3803   13.5306 C.ar    1  UNL1        0.1317
     30 N          62.4582   82.7860   13.9535 N.ar    1  UNL1       -0.2226
     31 O          61.8647   85.8710   12.1131 O.3     1  UNL1       -0.4700
     32 C          62.1743   85.4305   10.7131 C.3     1  UNL1        0.2525
@<TRIPOS>BOND
     1     9    10    1
     2    10     7   am
     3     7     8    2
     4     7     1    1
     5     1     2   ar
     6     2     3   ar
     7     3     4   ar
     8     4    11    1
     9    11    12   am
    10    12    13    2
    11    12    14    1
    12    14    15    1
    13    15    16    1
    14     4     5   ar
    15     5     6   ar
    16     6    17    1
    17    17    18    1
    18    18    19   ar
    19    19    20   ar
    20    20    21   ar
    21    21    22   ar
    22    22    24    1
    23    24    25   ar
    24    25    26   ar
    25    26    27   ar
    26    27    28    1
    27    27    29   ar
    28    29    30   ar
    29    22    23   ar
    30    23    31    1
    31    31    32    1
    32     6     1   ar
    33    23    18   ar
    34    16    14    1
    35    30    24   ar
@<TRIPOS>MOLECULE
*****
 32 35 0 0 0
SMALL
GASTEIGER

@<TRIPOS>ATOM
      1 C          63.8260   90.3668   13.7746 C.ar    1  UNL1        0.0895
      2 C          63.1104   91.2331   12.7810 C.ar    1  UNL1        0.1062
      3 N          62.5024   90.6217   11.5536 N.ar    1  UNL1       -0.2271
      4 C          62.6099   89.1440   11.3199 C.ar    1  UNL1        0.1558
      5 C          63.3255   88.2776   12.3135 C.ar    1  UNL1        0.0529
      6 C          63.9336   88.8891   13.5409 C.ar    1  UNL1        0.0793
      7 C          64.4341   90.9782   15.0020 C.2     1  UNL1        0.2676
      8 O          63.6210   91.1105   16.2555 O.2     1  UNL1       -0.2683
      9 C          66.2207   92.6780   14.1842 C.3     1  UNL1        0.1388
     10 N          65.8552   91.4574   14.9758 N.am    1  UNL1       -0.1997
     11 N          62.0018   88.5325   10.0925 N.am    1  UNL1       -0.1603
     12 C          60.6037   87.9913   10.1382 C.2     1  UNL1        0.2464
     13 O          59.7458   88.2307   11.3453 O.2     1  UNL1       -0.2730
     14 C          60.0633   87.2106    8.9770 C.3     1  UNL1        0.0786
     15 C          58.9439   86.9022    8.0273 C.3     1  UNL1        0.0096
     16 C          60.2466   86.1670    7.9153 C.3     1  UNL1        0.0096
     17 N          64.6492   88.0227   14.5346 N.pl3   1  UNL1       -0.2091
     18 C          63.8947   86.9723   15.2943 C.ar    1  UNL1        0.1044
     19 C          63.3155   87.2912   16.6408 C.ar    1  UNL1        0.0196
     20 C          62.5610   86.2407   17.4006 C.ar    1  UNL1        0.0016
     21 C          62.3856   84.8714   16.8139 C.ar    1  UNL1        0.0062
     22 C          62.9647   84.5525   15.4675 C.ar    1  UNL1        0.0710
     23 C          63.7192   85.6029   14.7077 C.ar    1  UNL1        0.1567
     24 C          62.7893   83.1832   14.8808 C.ar    1  UNL1        0.1654
     25 N          63.9915   82.3693   14.5035 N.ar    1  UNL1       -0.2226
     26 C          63.8161   81.0000   13.9168 C.ar    1  UNL1        0.1317
     27 C          62.4385   80.4446   13.7074 C.ar    1  UNL1        0.1783
     28 F          62.2631   79.0753   13.1208 F       1  UNL1       -0.2009
     29 C          61.2363   81.2584   14.0848 C.ar    1  UNL1        0.1317
     30 N          61.4117   82.6278   14.6715 N.ar    1  UNL1       -0.2226
     31 O          64.2984   85.2840   13.3612 O.3     1  UNL1       -0.4700
     32 C          63.3975   84.8657   12.2373 C.3     1  UNL1        0.2525
@<TRIPOS>BOND
     1     9    10    1
     2    10     7   am
     3     7     8    2
     4     7     1    1
     5     1     2   ar
     6     2     3   ar
     7     3     4   ar
     8     4    11    1
     9    11    12   am
    10    12    13    2
    11    12    14    1
    12    14    15    1
    13    15    16    1
    14     4     5   ar
    15     5     6   ar
    16     6    17    1
    17    17    18    1
    18    18    19   ar
    19    19    20   ar
    20    20    21   ar
    21    21    22   ar
    22    22    24    1
    23    24    25   ar
    24    25    26   ar
    25    26    27   ar
    26    27    28    1
    27    27    29   ar
    28    29    30   ar
    29    22    23   ar
    30    23    31    1
    31    31    32    1
    32     6     1   ar
    33    23    18   ar
    34    16    14    1
    35    30    24   ar
@<TRIPOS>MOLECULE
*****
 32 35 0 0 0
SMALL
GASTEIGER

@<TRIPOS>ATOM
      1 C          62.5897   90.4790   10.7147 C.ar    1  UNL1        0.0895
      2 C          63.2909   91.6107   10.0237 C.ar    1  UNL1        0.1062
      3 N          64.4900   92.2498   10.6590 N.ar    1  UNL1       -0.2271
      4 C          64.9879   91.7573   11.9854 C.ar    1  UNL1        0.1558
      5 C          64.2868   90.6256   12.6765 C.ar    1  UNL1        0.0529
      6 C          63.0877   89.9865   12.0411 C.ar    1  UNL1        0.0793
      7 C          61.3906   89.8399   10.0793 C.2     1  UNL1        0.2676
      8 O          61.5437   88.5679    9.2993 O.2     1  UNL1       -0.2683
      9 C          59.3533   90.4815   11.5583 C.3     1  UNL1        0.1388
     10 N          60.0385   90.4728   10.2240 N.am    1  UNL1       -0.1997
     11 N          66.1870   92.3964   12.6208 N.am    1  UNL1       -0.1603
     12 C          67.5513   92.1770   12.0373 C.2     1  UNL1        0.2464
     13 O          68.6604   91.6515   12.8999 O.2     1  UNL1       -0.2730
     14 C          67.8067   92.4831   10.5912 C.3     1  UNL1        0.0786
     15 C          68.4270   92.1163    9.2757 C.3     1  UNL1        0.0096
     16 C          67.6286   93.3799    9.4021 C.3     1  UNL1        0.0096
     17 N          62.3865   88.8547   12.7322 N.pl3   1  UNL1       -0.2091
     18 C          63.1824   87.7331   13.3309 C.ar    1  UNL1        0.1044
     19 C          64.2463   88.0272   14.3466 C.ar    1  UNL1        0.0196
     20 C          65.0422   86.9055   14.9453 C.ar    1  UNL1        0.0016
     21 C          64.7742   85.4898   14.5283 C.ar    1  UNL1        0.0062
     22 C          63.7103   85.1957   13.5126 C.ar    1  UNL1        0.0710
     23 C          62.9144   86.3173   12.9139 C.ar    1  UNL1        0.1567
     24 C          63.4423   83.7800   13.0956 C.ar    1  UNL1        0.1654
     25 N          62.5202   82.9204   13.9086 N.ar    1  UNL1       -0.2226
     26 C          62.2523   81.5047   13.4916 C.ar    1  UNL1        0.1317
     27 C          62.9063   80.9485   12.2616 C.ar    1  UNL1        0.1783
     28 F          62.6383   79.5328   11.8446 F       1  UNL1       -0.2009
     29 C          63.8284   81.8081   11.4486 C.ar    1  UNL1        0.1317
     30 N          64.0964   83.2238   11.8656 N.ar    1  UNL1       -0.2226
     31 O          61.8505   86.0232   11.8982 O.3     1  UNL1       -0.4700
     32 C          62.2207   85.8379   10.4565 C.3     1  UNL1        0.2525
@<TRIPOS>BOND
     1     9    10    1
     2    10     7   am
     3     7     8    2
     4     7     1    1
     5     1     2   ar
     6     2     3   ar
     7     3     4   ar
     8     4    11    1
     9    11    12   am
    10    12    13    2
    11    12    14    1
    12    14    15    1
    13    15    16    1
    14     4     5   ar
    15     5     6   ar
    16     6    17    1
    17    17    18    1
    18    18    19   ar
    19    19    20   ar
    20    20    21   ar
    21    21    22   ar
    22    22    24    1
    23    24    25   ar
    24    25    26   ar
    25    26    27   ar
    26    27    28    1
    27    27    29   ar
    28    29    30   ar
    29    22    23   ar
    30    23    31    1
    31    31    32    1
    32     6     1   ar
    33    23    18   ar
    34    16    14    1
    35    30    24   ar
@<TRIPOS>MOLECULE
*****
 32 35 0 0 0
SMALL
GASTEIGER

@<TRIPOS>ATOM
      1 C          62.2343   88.3986   11.7173 C.ar    1  UNL1        0.0895
      2 C          62.1556   86.9517   11.3301 C.ar    1  UNL1        0.1062
      3 N          62.8977   85.9204   12.1275 N.ar    1  UNL1       -0.2271
      4 C          63.7185   86.3362   13.3121 C.ar    1  UNL1        0.1558
      5 C          63.7971   87.7831   13.6994 C.ar    1  UNL1        0.0529
      6 C          63.0550   88.8144   12.9020 C.ar    1  UNL1        0.0793
      7 C          61.4922   89.4299   10.9199 C.2     1  UNL1        0.2676
      8 O          60.8435   90.5907   11.6140 O.2     1  UNL1       -0.2683
      9 C          60.0806   88.9887    8.7839 C.3     1  UNL1        0.1388
     10 N          61.3987   89.3003    9.4285 N.am    1  UNL1       -0.1997
     11 N          64.4605   85.3049   14.1095 N.am    1  UNL1       -0.1603
     12 C          64.0320   83.8683   14.0612 C.2     1  UNL1        0.2464
     13 O          63.7315   83.1320   15.3331 O.2     1  UNL1       -0.2730
     14 C          63.9041   83.1678   12.7410 C.3     1  UNL1        0.0786
     15 C          64.4796   82.7956   11.4068 C.3     1  UNL1        0.0096
     16 C          63.1069   82.3267   11.7886 C.3     1  UNL1        0.0096
     17 N          63.1337   90.2614   13.2894 N.pl3   1  UNL1       -0.2091
     18 C          64.4674   90.9415   13.3822 C.ar    1  UNL1        0.1044
     19 C          65.4093   90.5962   14.4974 C.ar    1  UNL1        0.0196
     20 C          66.7431   91.2764   14.5902 C.ar    1  UNL1        0.0016
     21 C          67.1348   92.3018   13.5679 C.ar    1  UNL1        0.0062
     22 C          66.1929   92.6471   12.4528 C.ar    1  UNL1        0.0710
     23 C          64.8592   91.9670   12.3599 C.ar    1  UNL1        0.1567
     24 C          66.5846   93.6724   11.4305 C.ar    1  UNL1        0.1654
     25 N          67.4197   93.2736   10.2500 N.ar    1  UNL1       -0.2226
     26 C          67.8114   94.2990    9.2277 C.ar    1  UNL1        0.1317
     27 C          67.3682   95.7232    9.3859 C.ar    1  UNL1        0.1783
     28 F          67.7599   96.7486    8.3636 F       1  UNL1       -0.2009
     29 C          66.5331   96.1221   10.5664 C.ar    1  UNL1        0.1317
     30 N          66.1413   95.0967   11.5887 N.ar    1  UNL1       -0.2226
     31 O          63.9172   92.3122   11.2448 O.3     1  UNL1       -0.4700
     32 C          63.9546   91.5336    9.9633 C.3     1  UNL1        0.2525
@<TRIPOS>BOND
     1     9    10    1
     2    10     7   am
     3     7     8    2
     4     7     1    1
     5     1     2   ar
     6     2     3   ar
     7     3     4   ar
     8     4    11    1
     9    11    12   am
    10    12    13    2
    11    12    14    1
    12    14    15    1
    13    15    16    1
    14     4     5   ar
    15     5     6   ar
    16     6    17    1
    17    17    18    1
    18    18    19   ar
    19    19    20   ar
    20    20    21   ar
    21    21    22   ar
    22    22    24    1
    23    24    25   ar
    24    25    26   ar
    25    26    27   ar
    26    27    28    1
    27    27    29   ar
    28    29    30   ar
    29    22    23   ar
    30    23    31    1
    31    31    32    1
    32     6     1   ar
    33    23    18   ar
    34    16    14    1
    35    30    24   ar
@<TRIPOS>MOLECULE
*****
 32 35 0 0 0
SMALL
GASTEIGER

@<TRIPOS>ATOM
      1 C          63.1472   84.4119   11.9740 C.ar    1  UNL1        0.0895
      2 C          63.8694   83.4323   11.0973 C.ar    1  UNL1        0.1062
      3 N          63.7863   83.5582    9.6049 N.ar    1  UNL1       -0.2271
      4 C          62.9809   84.6637    8.9892 C.ar    1  UNL1        0.1558
      5 C          62.2586   85.6433    9.8659 C.ar    1  UNL1        0.0529
      6 C          62.3418   85.5174   11.3583 C.ar    1  UNL1        0.0793
      7 C          63.2304   84.2860   13.4664 C.2     1  UNL1        0.2676
      8 O          64.3668   84.9222   14.2105 O.2     1  UNL1       -0.2683
      9 C          62.2228   82.0252   14.2559 C.3     1  UNL1        0.1388
     10 N          62.1771   83.5239   14.2146 N.am    1  UNL1       -0.1997
     11 N          62.8977   84.7896    7.4968 N.am    1  UNL1       -0.1603
     12 C          61.5596   84.8809    6.8253 C.2     1  UNL1        0.2464
     13 O          61.2425   83.9904    5.6605 O.2     1  UNL1       -0.2730
     14 C          60.5384   85.8628    7.3184 C.3     1  UNL1        0.0786
     15 C          59.5769   86.9823    7.0496 C.3     1  UNL1        0.0096
     16 C          59.7312   86.4439    8.4412 C.3     1  UNL1        0.0096
     17 N          61.6195   86.4971   12.2350 N.pl3   1  UNL1       -0.2091
     18 C          61.4722   87.9253   11.8009 C.ar    1  UNL1        0.1044
     19 C          60.1892   88.3917   11.1792 C.ar    1  UNL1        0.0196
     20 C          60.0420   89.8200   10.7451 C.ar    1  UNL1        0.0016
     21 C          61.1776   90.7818   10.9327 C.ar    1  UNL1        0.0062
     22 C          62.4605   90.3154   11.5544 C.ar    1  UNL1        0.0710
     23 C          62.6078   88.8872   11.9885 C.ar    1  UNL1        0.1567
     24 C          63.5961   91.2772   11.7421 C.ar    1  UNL1        0.1654
     25 N          64.1123   91.5686   13.1200 N.ar    1  UNL1       -0.2226
     26 C          65.2480   92.5304   13.3076 C.ar    1  UNL1        0.1317
     27 C          65.8674   93.2009   12.1173 C.ar    1  UNL1        0.1783
     28 F          67.0031   94.1627   12.3050 F       1  UNL1       -0.2009
     29 C          65.3513   92.9095   10.7394 C.ar    1  UNL1        0.1317
     30 N          64.2156   91.9476   10.5518 N.ar    1  UNL1       -0.2226
     31 O          63.8908   88.4208   12.6103 O.3     1  UNL1       -0.4700
     32 C          64.0396   88.4075   14.1028 C.3     1  UNL1        0.2525
@<TRIPOS>BOND
     1     9    10    1
     2    10     7   am
     3     7     8    2
     4     7     1    1
     5     1     2   ar
     6     2     3   ar
     7     3     4   ar
     8     4    11    1
     9    11    12   am
    10    12    13    2
    11    12    14    1
    12    14    15    1
    13    15    16    1
    14     4     5   ar
    15     5     6   ar
    16     6    17    1
    17    17    18    1
    18    18    19   ar
    19    19    20   ar
    20    20    21   ar
    21    21    22   ar
    22    22    24    1
    23    24    25   ar
    24    25    26   ar
    25    26    27   ar
    26    27    28    1
    27    27    29   ar
    28    29    30   ar
    29    22    23   ar
    30    23    31    1
    31    31    32    1
    32     6     1   ar
    33    23    18   ar
    34    16    14    1
    35    30    24   ar
@<TRIPOS>MOLECULE
*****
 32 35 0 0 0
SMALL
GASTEIGER

@<TRIPOS>ATOM
      1 C          62.3339   86.2154   11.4353 C.ar    1  UNL1        0.0895
      2 C          61.8962   85.2879   10.3407 C.ar    1  UNL1        0.1062
      3 N          61.1679   85.8286    9.1460 N.ar    1  UNL1       -0.2271
      4 C          60.8774   87.2967    9.0459 C.ar    1  UNL1        0.1558
      5 C          61.3151   88.2242   10.1405 C.ar    1  UNL1        0.0529
      6 C          62.0433   87.6835   11.3352 C.ar    1  UNL1        0.0793
      7 C          63.0622   85.6747   12.6300 C.2     1  UNL1        0.2676
      8 O          63.7711   86.6109   13.5632 O.2     1  UNL1       -0.2683
      9 C          64.2586   83.3749   12.4586 C.3     1  UNL1        0.1388
     10 N          63.0815   84.1979   12.8915 N.am    1  UNL1       -0.1997
     11 N          60.1491   87.8374    7.8512 N.am    1  UNL1       -0.1603
     12 C          59.7374   89.2793    7.8131 C.2     1  UNL1        0.2464
     13 O          59.5893   90.0511    9.0908 O.2     1  UNL1       -0.2730
     14 C          59.4737   89.9494    6.4972 C.3     1  UNL1        0.0786
     15 C          58.5072   90.4826    5.4816 C.3     1  UNL1        0.0096
     16 C          59.9835   90.5768    5.2338 C.3     1  UNL1        0.0096
     17 N          62.4810   88.6111   12.4298 N.pl3   1  UNL1       -0.2091
     18 C          63.2866   89.8327   12.1003 C.ar    1  UNL1        0.1044
     19 C          63.0418   90.5688   10.8164 C.ar    1  UNL1        0.0196
     20 C          63.8474   91.7905   10.4869 C.ar    1  UNL1        0.0016
     21 C          64.8978   92.2761   11.4412 C.ar    1  UNL1        0.0062
     22 C          65.1426   91.5401   12.7251 C.ar    1  UNL1        0.0710
     23 C          64.3371   90.3184   13.0546 C.ar    1  UNL1        0.1567
     24 C          66.1930   92.0257   13.6794 C.ar    1  UNL1        0.1654
     25 N          65.7942   92.5819   15.0142 N.ar    1  UNL1       -0.2226
     26 C          66.8446   93.0675   15.9686 C.ar    1  UNL1        0.1317
     27 C          68.2938   92.9969   15.5882 C.ar    1  UNL1        0.1783
     28 F          69.3442   93.4825   16.5425 F       1  UNL1       -0.2009
     29 C          68.6927   92.4408   14.2535 C.ar    1  UNL1        0.1317
     30 N          67.6423   91.9551   13.2990 N.ar    1  UNL1       -0.2226
     31 O          64.5819   89.5824   14.3385 O.3     1  UNL1       -0.4700
     32 C          63.6355   89.7482   15.4903 C.3     1  UNL1        0.2525
@<TRIPOS>BOND
     1     9    10    1
     2    10     7   am
     3     7     8    2
     4     7     1    1
     5     1     2   ar
     6     2     3   ar
     7     3     4   ar
     8     4    11    1
     9    11    12   am
    10    12    13    2
    11    12    14    1
    12    14    15    1
    13    15    16    1
    14     4     5   ar
    15     5     6   ar
    16     6    17    1
    17    17    18    1
    18    18    19   ar
    19    19    20   ar
    20    20    21   ar
    21    21    22   ar
    22    22    24    1
    23    24    25   ar
    24    25    26   ar
    25    26    27   ar
    26    27    28    1
    27    27    29   ar
    28    29    30   ar
    29    22    23   ar
    30    23    31    1
    31    31    32    1
    32     6     1   ar
    33    23    18   ar
    34    16    14    1
    35    30    24   ar
