@<TRIPOS>MOLECULE
*****
 33 36 0 0 0
SMALL
GASTEIGER

@<TRIPOS>ATOM
      1 C          61.8961   88.6243   11.5006 C.ar    1  UNL1        0.2394
      2 N          62.6701   87.5560   12.2145 N.ar    1  UNL1       -0.1779
      3 C          62.6825   86.1546   11.6800 C.ar    1  UNL1        0.2232
      4 N          61.9208   85.8213   10.4315 N.ar    1  UNL1       -0.2128
      5 C          61.1467   86.8895    9.7176 C.ar    1  UNL1        0.0952
      6 C          60.3072   86.8599    8.4748 C.ar    1  UNL1        0.0268
      7 C          59.7761   88.2432    8.2413 C.ar    1  UNL1        0.0372
      8 S          60.2872   89.1276    9.3397 S.2     1  UNL1       -0.0803
      9 C          61.1343   88.2910   10.2521 C.ar    1  UNL1        0.1008
     10 N          63.4566   85.0864   12.3940 N.pl3   1  UNL1       -0.2824
     11 H          64.0601   85.3269   13.1338 H       1  UNL1        0.1551
     12 C          63.3112   83.6517   11.9809 C.ar    1  UNL1        0.0528
     13 C          63.9022   83.1808   10.6851 C.ar    1  UNL1        0.0155
     14 C          63.7568   81.7462   10.2720 C.ar    1  UNL1        0.0138
     15 C          63.0204   80.7825   11.1546 C.ar    1  UNL1        0.0959
     16 C          62.4295   81.2534   12.4504 C.ar    1  UNL1        0.1509
     17 F          61.6931   80.2897   13.3331 F       1  UNL1       -0.2034
     18 C          62.5749   82.6880   12.8635 C.ar    1  UNL1        0.0450
     19 C          62.8750   79.3478   10.7416 C.1     1  UNL1        0.1027
     20 N          62.7295   77.9132   10.3286 N.1     1  UNL1       -0.1908
     21 O          61.8837   90.0257   12.0351 O.3     1  UNL1       -0.4362
     22 C          63.5210   91.6009   10.0759 C.3     1  UNL1        0.0342
     23 C          63.9824   91.4593   11.4962 C.ar    1  UNL1        0.0124
     24 C          65.2624   92.1052   11.9368 C.ar    1  UNL1       -0.0012
     25 C          65.7239   91.9636   13.3571 C.ar    1  UNL1        0.0003
     26 C          64.9053   91.1761   14.3366 C.ar    1  UNL1       -0.0012
     27 C          63.6252   90.5300   13.8960 C.ar    1  UNL1        0.0124
     28 C          62.8066   89.7425   14.8755 C.3     1  UNL1        0.0342
     29 C          63.1638   90.6717   12.4758 C.ar    1  UNL1        0.1391
     30 C          67.0040   92.6096   13.7977 C.2     1  UNL1        0.0109
     31 C          67.2021   92.9754   15.2388 C.2     1  UNL1        0.0780
     32 C          68.4823   93.6214   15.6794 C.1     1  UNL1        0.1011
     33 N          69.7623   94.2674   16.1201 N.1     1  UNL1       -0.1908
@<TRIPOS>BOND
     1    22    23    1
     2    23    24   ar
     3    24    25   ar
     4    25    30    1
     5    30    31    2
     6    31    32    1
     7    32    33    3
     8    25    26   ar
     9    26    27   ar
    10    27    28    1
    11    27    29   ar
    12    29    21    1
    13    21     1    1
    14     1     2   ar
    15     2     3   ar
    16     3    10    1
    17    10    12    1
    18    12    13   ar
    19    13    14   ar
    20    14    15   ar
    21    15    19    1
    22    19    20    3
    23    15    16   ar
    24    16    17    1
    25    16    18   ar
    26     3     4   ar
    27     4     5   ar
    28     5     6   ar
    29     6     7   ar
    30     7     8   ar
    31     8     9   ar
    32    29    23   ar
    33     9     1   ar
    34    18    12   ar
    35     9     5   ar
    36    10    11    1
@<TRIPOS>MOLECULE
*****
 33 36 0 0 0
SMALL
GASTEIGER

@<TRIPOS>ATOM
      1 C          61.8895   88.6242   11.4990 C.ar    1  UNL1        0.2394
      2 N          62.6585   87.5557   12.2179 N.ar    1  UNL1       -0.1779
      3 C          62.6675   86.1526   11.6877 C.ar    1  UNL1        0.2232
      4 N          61.9074   85.8179   10.4386 N.ar    1  UNL1       -0.2128
      5 C          61.1383   86.8864    9.7196 C.ar    1  UNL1        0.0952
      6 C          60.3015   86.8557    8.4752 C.ar    1  UNL1        0.0268
      7 C          59.7753   88.2399    8.2362 C.ar    1  UNL1        0.0372
      8 S          60.2870   89.1261    9.3330 S.2     1  UNL1       -0.0803
      9 C          61.1294   88.2895   10.2498 C.ar    1  UNL1        0.1008
     10 N          63.4365   85.0840   12.4067 N.pl3   1  UNL1       -0.2824
     11 H          64.0318   85.3238   13.1533 H       1  UNL1        0.1551
     12 C          63.2987   83.6502   11.9880 C.ar    1  UNL1        0.0528
     13 C          63.8816   83.1901   10.6848 C.ar    1  UNL1        0.0155
     14 C          63.7437   81.7563   10.2661 C.ar    1  UNL1        0.0138
     15 C          63.0230   80.7827   11.1507 C.ar    1  UNL1        0.0959
     16 C          62.4401   81.2428   12.4539 C.ar    1  UNL1        0.1509
     17 F          61.7192   80.2692   13.3386 F       1  UNL1       -0.2034
     18 C          62.5779   82.6766   12.8726 C.ar    1  UNL1        0.0450
     19 C          62.8850   79.3489   10.7321 C.1     1  UNL1        0.1027
     20 N          62.7471   77.9152   10.3135 N.1     1  UNL1       -0.1908
     21 O          61.8805   90.0273   12.0292 O.3     1  UNL1       -0.4362
     22 C          62.7964   89.7368   14.8712 C.3     1  UNL1        0.0342
     23 C          63.6191   90.5240   13.8947 C.ar    1  UNL1        0.0124
     24 C          64.8998   91.1660   14.3393 C.ar    1  UNL1       -0.0012
     25 C          65.7226   91.9532   13.3628 C.ar    1  UNL1        0.0003
     26 C          65.2647   92.0985   11.9420 C.ar    1  UNL1       -0.0012
     27 C          63.9839   91.4565   11.4973 C.ar    1  UNL1        0.0124
     28 C          63.5260   91.6018   10.0764 C.3     1  UNL1        0.0342
     29 C          63.1612   90.6693   12.4737 C.ar    1  UNL1        0.1391
     30 C          67.0034   92.5952   13.8075 C.2     1  UNL1        0.0109
     31 C          67.1851   92.9908   15.2429 C.2     1  UNL1        0.0780
     32 C          68.4659   93.6327   15.6875 C.1     1  UNL1        0.1011
     33 N          69.7465   94.2747   16.1322 N.1     1  UNL1       -0.1908
@<TRIPOS>BOND
     1    22    23    1
     2    23    24   ar
     3    24    25   ar
     4    25    30    1
     5    30    31    2
     6    31    32    1
     7    32    33    3
     8    25    26   ar
     9    26    27   ar
    10    27    28    1
    11    27    29   ar
    12    29    21    1
    13    21     1    1
    14     1     2   ar
    15     2     3   ar
    16     3    10    1
    17    10    12    1
    18    12    13   ar
    19    13    14   ar
    20    14    15   ar
    21    15    19    1
    22    19    20    3
    23    15    16   ar
    24    16    17    1
    25    16    18   ar
    26     3     4   ar
    27     4     5   ar
    28     5     6   ar
    29     6     7   ar
    30     7     8   ar
    31     8     9   ar
    32    29    23   ar
    33     9     1   ar
    34    18    12   ar
    35     9     5   ar
    36    10    11    1
@<TRIPOS>MOLECULE
*****
 33 36 0 0 0
SMALL
GASTEIGER

@<TRIPOS>ATOM
      1 C          62.5370   86.6947   12.1628 C.ar    1  UNL1        0.2394
      2 N          62.4771   88.1907   12.2540 N.ar    1  UNL1       -0.1779
      3 C          63.2910   88.9123   13.2868 C.ar    1  UNL1        0.2232
      4 N          64.1648   88.1379   14.2286 N.ar    1  UNL1       -0.2128
      5 C          64.2247   86.6419   14.1373 C.ar    1  UNL1        0.0952
      6 C          64.9889   85.6182   14.9235 C.ar    1  UNL1        0.0268
      7 C          64.6473   84.2639   14.3765 C.ar    1  UNL1        0.0372
      8 S          63.6720   84.4506   13.2522 S.2     1  UNL1       -0.0803
      9 C          63.4108   85.9203   13.1044 C.ar    1  UNL1        0.1008
     10 N          63.2311   90.4084   13.3781 N.pl3   1  UNL1       -0.2824
     11 H          62.5435   90.8405   13.9346 H       1  UNL1        0.1551
     12 C          64.2188   91.2461   12.6213 C.ar    1  UNL1        0.0528
     13 C          63.9836   91.5580   11.1731 C.ar    1  UNL1        0.0155
     14 C          64.9713   92.3957   10.4163 C.ar    1  UNL1        0.0138
     15 C          66.1942   92.9214   11.1077 C.ar    1  UNL1        0.0959
     16 C          66.4294   92.6095   12.5559 C.ar    1  UNL1        0.1509
     17 F          67.6523   93.1352   13.2475 F       1  UNL1       -0.2034
     18 C          65.4417   91.7718   13.3127 C.ar    1  UNL1        0.0450
     19 C          67.1820   93.7591   10.3510 C.1     1  UNL1        0.1027
     20 N          68.1697   94.5967    9.5943 N.1     1  UNL1       -0.1908
     21 O          61.7231   85.9731   11.1299 O.3     1  UNL1       -0.4362
     22 C          59.7359   88.1247   11.7794 C.3     1  UNL1        0.0342
     23 C          60.0684   87.8178   10.3493 C.ar    1  UNL1        0.0124
     24 C          59.4073   88.5866    9.2439 C.ar    1  UNL1       -0.0012
     25 C          59.7399   88.2796    7.8138 C.ar    1  UNL1        0.0003
     26 C          60.7334   87.2038    7.4890 C.ar    1  UNL1       -0.0012
     27 C          61.3945   86.4349    8.5944 C.ar    1  UNL1        0.0124
     28 C          62.3880   85.3592    8.2697 C.3     1  UNL1        0.0342
     29 C          61.0620   86.7419   10.0245 C.ar    1  UNL1        0.1391
     30 C          59.0787   89.0485    6.7084 C.2     1  UNL1        0.0109
     31 C          59.6210   90.3847    6.2958 C.2     1  UNL1        0.0780
     32 C          58.9599   91.1536    5.1904 C.1     1  UNL1        0.1011
     33 N          58.2988   91.9226    4.0851 N.1     1  UNL1       -0.1908
@<TRIPOS>BOND
     1    22    23    1
     2    23    24   ar
     3    24    25   ar
     4    25    30    1
     5    30    31    2
     6    31    32    1
     7    32    33    3
     8    25    26   ar
     9    26    27   ar
    10    27    28    1
    11    27    29   ar
    12    29    21    1
    13    21     1    1
    14     1     2   ar
    15     2     3   ar
    16     3    10    1
    17    10    12    1
    18    12    13   ar
    19    13    14   ar
    20    14    15   ar
    21    15    19    1
    22    19    20    3
    23    15    16   ar
    24    16    17    1
    25    16    18   ar
    26     3     4   ar
    27     4     5   ar
    28     5     6   ar
    29     6     7   ar
    30     7     8   ar
    31     8     9   ar
    32    29    23   ar
    33     9     1   ar
    34    18    12   ar
    35     9     5   ar
    36    10    11    1
@<TRIPOS>MOLECULE
*****
 33 36 0 0 0
SMALL
GASTEIGER

@<TRIPOS>ATOM
      1 C          62.5372   86.6901   12.1580 C.ar    1  UNL1        0.2394
      2 N          62.4731   88.1859   12.2510 N.ar    1  UNL1       -0.1779
      3 C          63.2822   88.9082   13.2870 C.ar    1  UNL1        0.2232
      4 N          64.1556   88.1349   14.2301 N.ar    1  UNL1       -0.2128
      5 C          64.2197   86.6392   14.1370 C.ar    1  UNL1        0.0952
      6 C          64.9845   85.6165   14.9239 C.ar    1  UNL1        0.0268
      7 C          64.6480   84.2621   14.3742 C.ar    1  UNL1        0.0372
      8 S          63.6752   84.4476   13.2476 S.2     1  UNL1       -0.0803
      9 C          63.4105   85.9168   13.1010 C.ar    1  UNL1        0.1008
     10 N          63.2181   90.4041   13.3800 N.pl3   1  UNL1       -0.2824
     11 H          62.5290   90.8335   13.9367 H       1  UNL1        0.1551
     12 C          64.2039   91.2454   12.6248 C.ar    1  UNL1        0.0528
     13 C          63.9865   91.5299   11.1682 C.ar    1  UNL1        0.0155
     14 C          64.9723   92.3713   10.4131 C.ar    1  UNL1        0.0138
     15 C          66.1756   92.9281   11.1145 C.ar    1  UNL1        0.0959
     16 C          66.3930   92.6436   12.5711 C.ar    1  UNL1        0.1509
     17 F          67.5963   93.2004   13.2727 F       1  UNL1       -0.2034
     18 C          65.4072   91.8022   13.3263 C.ar    1  UNL1        0.0450
     19 C          67.1615   93.7695   10.3594 C.1     1  UNL1        0.1027
     20 N          68.1473   94.6108    9.6044 N.1     1  UNL1       -0.1908
     21 O          61.7280   85.9678   11.1220 O.3     1  UNL1       -0.4362
     22 C          62.3762   85.3396    8.2609 C.3     1  UNL1        0.0342
     23 C          61.3905   86.4224    8.5863 C.ar    1  UNL1        0.0124
     24 C          60.7289   87.1911    7.4812 C.ar    1  UNL1       -0.0012
     25 C          59.7431   88.2739    7.8066 C.ar    1  UNL1        0.0003
     26 C          59.4190   88.5880    9.2370 C.ar    1  UNL1       -0.0012
     27 C          60.0806   87.8193   10.3422 C.ar    1  UNL1        0.0124
     28 C          59.7565   88.1333   11.7727 C.3     1  UNL1        0.0342
     29 C          61.0663   86.7365   10.0169 C.ar    1  UNL1        0.1391
     30 C          59.0814   89.0427    6.7014 C.2     1  UNL1        0.0109
     31 C          59.6082   90.3901    6.3054 C.2     1  UNL1        0.0780
     32 C          58.9465   91.1588    5.2002 C.1     1  UNL1        0.1011
     33 N          58.2849   91.9276    4.0951 N.1     1  UNL1       -0.1908
@<TRIPOS>BOND
     1    22    23    1
     2    23    24   ar
     3    24    25   ar
     4    25    30    1
     5    30    31    2
     6    31    32    1
     7    32    33    3
     8    25    26   ar
     9    26    27   ar
    10    27    28    1
    11    27    29   ar
    12    29    21    1
    13    21     1    1
    14     1     2   ar
    15     2     3   ar
    16     3    10    1
    17    10    12    1
    18    12    13   ar
    19    13    14   ar
    20    14    15   ar
    21    15    19    1
    22    19    20    3
    23    15    16   ar
    24    16    17    1
    25    16    18   ar
    26     3     4   ar
    27     4     5   ar
    28     5     6   ar
    29     6     7   ar
    30     7     8   ar
    31     8     9   ar
    32    29    23   ar
    33     9     1   ar
    34    18    12   ar
    35     9     5   ar
    36    10    11    1
@<TRIPOS>MOLECULE
*****
 33 36 0 0 0
SMALL
GASTEIGER

@<TRIPOS>ATOM
      1 C          62.6218   86.7500   12.1138 C.ar    1  UNL1        0.2394
      2 N          62.6915   88.2471   12.0526 N.ar    1  UNL1       -0.1779
      3 C          63.5211   89.0007   13.0495 C.ar    1  UNL1        0.2232
      4 N          64.2811   88.2571   14.1076 N.ar    1  UNL1       -0.2128
      5 C          64.2114   86.7600   14.1688 C.ar    1  UNL1        0.0952
      6 C          64.8468   85.7626   15.0915 C.ar    1  UNL1        0.0268
      7 C          64.4098   84.3925   14.6649 C.ar    1  UNL1        0.0372
      8 S          63.5044   84.5432   13.4785 S.2     1  UNL1       -0.0803
      9 C          63.3817   86.0064   13.1719 C.ar    1  UNL1        0.1008
     10 N          63.5909   90.4979   12.9882 N.pl3   1  UNL1       -0.2824
     11 H          62.8779   91.0058   12.5378 H       1  UNL1        0.1551
     12 C          64.7468   91.2210   13.6134 C.ar    1  UNL1        0.0528
     13 C          65.9288   91.6111   12.7762 C.ar    1  UNL1        0.0155
     14 C          67.0847   92.3343   13.4014 C.ar    1  UNL1        0.0138
     15 C          67.0588   92.6673   14.8637 C.ar    1  UNL1        0.0959
     16 C          65.8768   92.2773   15.7009 C.ar    1  UNL1        0.1509
     17 F          65.8507   92.6103   17.1632 F       1  UNL1       -0.2034
     18 C          64.7209   91.5541   15.0757 C.ar    1  UNL1        0.0450
     19 C          68.2147   93.3905   15.4889 C.1     1  UNL1        0.1027
     20 N          69.3706   94.1136   16.1142 N.1     1  UNL1       -0.1908
     21 O          61.7922   85.9965   11.1169 O.3     1  UNL1       -0.4362
     22 C          62.4330   85.3490    8.2585 C.3     1  UNL1        0.0342
     23 C          61.4207   86.4086    8.5788 C.ar    1  UNL1        0.0124
     24 C          60.7289   87.1444    7.4698 C.ar    1  UNL1       -0.0012
     25 C          59.7165   88.2041    7.7901 C.ar    1  UNL1        0.0003
     26 C          59.3962   88.5278    9.2192 C.ar    1  UNL1       -0.0012
     27 C          60.0880   87.7919   10.3282 C.ar    1  UNL1        0.0124
     28 C          59.7676   88.1156   11.7573 C.3     1  UNL1        0.0342
     29 C          61.1003   86.7323   10.0080 C.ar    1  UNL1        0.1391
     30 C          59.0247   88.9400    6.6810 C.2     1  UNL1        0.0109
     31 C          59.4092   90.3551    6.3657 C.2     1  UNL1        0.0780
     32 C          58.7174   91.0910    5.2567 C.1     1  UNL1        0.1011
     33 N          58.0255   91.8268    4.1477 N.1     1  UNL1       -0.1908
@<TRIPOS>BOND
     1    22    23    1
     2    23    24   ar
     3    24    25   ar
     4    25    30    1
     5    30    31    2
     6    31    32    1
     7    32    33    3
     8    25    26   ar
     9    26    27   ar
    10    27    28    1
    11    27    29   ar
    12    29    21    1
    13    21     1    1
    14     1     2   ar
    15     2     3   ar
    16     3    10    1
    17    10    12    1
    18    12    13   ar
    19    13    14   ar
    20    14    15   ar
    21    15    19    1
    22    19    20    3
    23    15    16   ar
    24    16    17    1
    25    16    18   ar
    26     3     4   ar
    27     4     5   ar
    28     5     6   ar
    29     6     7   ar
    30     7     8   ar
    31     8     9   ar
    32    29    23   ar
    33     9     1   ar
    34    18    12   ar
    35     9     5   ar
    36    10    11    1
@<TRIPOS>MOLECULE
*****
 33 36 0 0 0
SMALL
GASTEIGER

@<TRIPOS>ATOM
      1 C          62.6290   86.7438   12.1066 C.ar    1  UNL1        0.2394
      2 N          62.6973   88.2412   12.0515 N.ar    1  UNL1       -0.1779
      3 C          63.5231   88.9917   13.0537 C.ar    1  UNL1        0.2232
      4 N          64.2808   88.2449   14.1112 N.ar    1  UNL1       -0.2128
      5 C          64.2125   86.7475   14.1664 C.ar    1  UNL1        0.0952
      6 C          64.8463   85.7471   15.0870 C.ar    1  UNL1        0.0268
      7 C          64.4120   84.3783   14.6537 C.ar    1  UNL1        0.0372
      8 S          63.5099   84.5327   13.4653 S.2     1  UNL1       -0.0803
      9 C          63.3866   85.9969   13.1641 C.ar    1  UNL1        0.1008
     10 N          63.5914   90.4892   12.9985 N.pl3   1  UNL1       -0.2824
     11 H          62.8734   90.9988   12.5580 H       1  UNL1        0.1551
     12 C          64.7537   91.2102   13.6145 C.ar    1  UNL1        0.0528
     13 C          65.9356   91.5862   12.7708 C.ar    1  UNL1        0.0155
     14 C          67.0978   92.3071   13.3868 C.ar    1  UNL1        0.0138
     15 C          67.0781   92.6522   14.8464 C.ar    1  UNL1        0.0959
     16 C          65.8962   92.2762   15.6901 C.ar    1  UNL1        0.1509
     17 F          65.8764   92.6212   17.1498 F       1  UNL1       -0.2034
     18 C          64.7340   91.5553   15.0741 C.ar    1  UNL1        0.0450
     19 C          68.2403   93.3732   15.4625 C.1     1  UNL1        0.1027
     20 N          69.4024   94.0941   16.0786 N.1     1  UNL1       -0.1908
     21 O          61.8031   85.9932   11.1043 O.3     1  UNL1       -0.4362
     22 C          59.7819   88.1094   11.7651 C.3     1  UNL1        0.0342
     23 C          60.0945   87.7920   10.3328 C.ar    1  UNL1        0.0124
     24 C          59.3966   88.5326    9.2309 C.ar    1  UNL1       -0.0012
     25 C          59.7093   88.2152    7.7985 C.ar    1  UNL1        0.0003
     26 C          60.7198   87.1571    7.4682 C.ar    1  UNL1       -0.0012
     27 C          61.4178   86.4164    8.5701 C.ar    1  UNL1        0.0124
     28 C          62.4284   85.3584    8.2398 C.3     1  UNL1        0.0342
     29 C          61.1052   86.7339   10.0024 C.ar    1  UNL1        0.1391
     30 C          59.0113   88.9559    6.6965 C.2     1  UNL1        0.0109
     31 C          59.4317   90.3530    6.3485 C.2     1  UNL1        0.0780
     32 C          58.7337   91.0937    5.2465 C.1     1  UNL1        0.1011
     33 N          58.0357   91.8344    4.1446 N.1     1  UNL1       -0.1908
@<TRIPOS>BOND
     1    22    23    1
     2    23    24   ar
     3    24    25   ar
     4    25    30    1
     5    30    31    2
     6    31    32    1
     7    32    33    3
     8    25    26   ar
     9    26    27   ar
    10    27    28    1
    11    27    29   ar
    12    29    21    1
    13    21     1    1
    14     1     2   ar
    15     2     3   ar
    16     3    10    1
    17    10    12    1
    18    12    13   ar
    19    13    14   ar
    20    14    15   ar
    21    15    19    1
    22    19    20    3
    23    15    16   ar
    24    16    17    1
    25    16    18   ar
    26     3     4   ar
    27     4     5   ar
    28     5     6   ar
    29     6     7   ar
    30     7     8   ar
    31     8     9   ar
    32    29    23   ar
    33     9     1   ar
    34    18    12   ar
    35     9     5   ar
    36    10    11    1
@<TRIPOS>MOLECULE
*****
 33 36 0 0 0
SMALL
GASTEIGER

@<TRIPOS>ATOM
      1 C          63.2924   87.0336   12.4009 C.ar    1  UNL1        0.2394
      2 N          63.3884   88.0275   13.5203 N.ar    1  UNL1       -0.1779
      3 C          62.5976   89.3007   13.4627 C.ar    1  UNL1        0.2232
      4 N          61.7106   89.5802   12.2857 N.ar    1  UNL1       -0.2128
      5 C          61.6146   88.5863   11.1664 C.ar    1  UNL1        0.0952
      6 C          60.8304   88.5875    9.8877 C.ar    1  UNL1        0.0268
      7 C          61.1366   87.3150    9.1550 C.ar    1  UNL1        0.0372
      8 S          62.1101   86.5273    9.9808 S.2     1  UNL1       -0.0803
      9 C          62.4054   87.3131   11.2240 C.ar    1  UNL1        0.1008
     10 N          62.6937   90.2946   14.5822 N.pl3   1  UNL1       -0.2824
     11 H          61.9076   90.4793   15.1453 H       1  UNL1        0.1551
     12 C          63.9876   91.0070   14.8436 C.ar    1  UNL1        0.0528
     13 C          64.2410   91.6348   16.1821 C.ar    1  UNL1        0.0155
     14 C          65.5349   92.3472   16.4436 C.ar    1  UNL1        0.0138
     15 C          66.5754   92.4318   15.3665 C.ar    1  UNL1        0.0959
     16 C          66.3220   91.8040   14.0279 C.ar    1  UNL1        0.1509
     17 F          67.3625   91.8886   12.9507 F       1  UNL1       -0.2034
     18 C          65.0281   91.0916   13.7665 C.ar    1  UNL1        0.0450
     19 C          67.8693   93.1442   15.6278 C.1     1  UNL1        0.1027
     20 N          69.1631   93.8566   15.8891 N.1     1  UNL1       -0.1908
     21 O          64.0832   85.7604   12.4585 O.3     1  UNL1       -0.4362
     22 C          63.1990   85.2466   15.2789 C.3     1  UNL1        0.0342
     23 C          62.9608   84.2132   14.2181 C.ar    1  UNL1        0.0124
     24 C          62.2804   82.9228   14.5675 C.ar    1  UNL1       -0.0012
     25 C          62.0422   81.8893   13.5066 C.ar    1  UNL1        0.0003
     26 C          62.4843   82.1462   12.0966 C.ar    1  UNL1       -0.0012
     27 C          63.1647   83.4366   11.7471 C.ar    1  UNL1        0.0124
     28 C          63.6068   83.6935   10.3370 C.3     1  UNL1        0.0342
     29 C          63.4029   84.4700   12.8079 C.ar    1  UNL1        0.1391
     30 C          61.3618   80.5989   13.8561 C.2     1  UNL1        0.0109
     31 C          59.8841   80.5758   14.1129 C.2     1  UNL1        0.0780
     32 C          59.2037   79.2854   14.4624 C.1     1  UNL1        0.1011
     33 N          58.5234   77.9950   14.8118 N.1     1  UNL1       -0.1908
@<TRIPOS>BOND
     1    22    23    1
     2    23    24   ar
     3    24    25   ar
     4    25    30    1
     5    30    31    2
     6    31    32    1
     7    32    33    3
     8    25    26   ar
     9    26    27   ar
    10    27    28    1
    11    27    29   ar
    12    29    21    1
    13    21     1    1
    14     1     2   ar
    15     2     3   ar
    16     3    10    1
    17    10    12    1
    18    12    13   ar
    19    13    14   ar
    20    14    15   ar
    21    15    19    1
    22    19    20    3
    23    15    16   ar
    24    16    17    1
    25    16    18   ar
    26     3     4   ar
    27     4     5   ar
    28     5     6   ar
    29     6     7   ar
    30     7     8   ar
    31     8     9   ar
    32    29    23   ar
    33     9     1   ar
    34    18    12   ar
    35     9     5   ar
    36    10    11    1
@<TRIPOS>MOLECULE
*****
 33 36 0 0 0
SMALL
GASTEIGER

@<TRIPOS>ATOM
      1 C          63.5062   87.2822   13.0482 C.ar    1  UNL1        0.2394
      2 N          62.4159   87.1721   12.0239 N.ar    1  UNL1       -0.1779
      3 C          61.6364   88.3897   11.6245 C.ar    1  UNL1        0.2232
      4 N          61.9471   89.7176   12.2494 N.ar    1  UNL1       -0.2128
      5 C          63.0374   89.8276   13.2737 C.ar    1  UNL1        0.0952
      6 C          63.5657   90.9935   14.0558 C.ar    1  UNL1        0.0268
      7 C          64.6718   90.4963   14.9385 C.ar    1  UNL1        0.0372
      8 S          64.8271   89.0232   14.7021 S.2     1  UNL1       -0.0803
      9 C          63.8169   88.6099   13.6731 C.ar    1  UNL1        0.1008
     10 N          60.5461   88.2796   10.6002 N.pl3   1  UNL1       -0.2824
     11 H          59.7310   88.8248   10.6882 H       1  UNL1        0.1551
     12 C          60.6977   87.3389    9.4416 C.ar    1  UNL1        0.0528
     13 C          59.5503   87.1159    8.5015 C.ar    1  UNL1        0.0155
     14 C          59.7018   86.1752    7.3430 C.ar    1  UNL1        0.0138
     15 C          61.0008   85.4576    7.1246 C.ar    1  UNL1        0.0959
     16 C          62.1482   85.6806    8.0647 C.ar    1  UNL1        0.1509
     17 F          63.4472   84.9630    7.8463 F       1  UNL1       -0.2034
     18 C          61.9966   86.6213    9.2232 C.ar    1  UNL1        0.0450
     19 C          61.1524   84.5168    5.9661 C.1     1  UNL1        0.1027
     20 N          61.3041   83.5762    4.8077 N.1     1  UNL1       -0.1908
     21 O          64.2857   86.0645   13.4476 O.3     1  UNL1       -0.4362
     22 C          63.1623   85.3228   16.1287 C.3     1  UNL1        0.0342
     23 C          63.0225   84.3804   14.9701 C.ar    1  UNL1        0.0124
     24 C          62.3210   83.0671   15.1521 C.ar    1  UNL1       -0.0012
     25 C          62.1812   82.1246   13.9935 C.ar    1  UNL1        0.0003
     26 C          62.7429   82.4954   12.6530 C.ar    1  UNL1       -0.0012
     27 C          63.4445   83.8087   12.4710 C.ar    1  UNL1        0.0124
     28 C          64.0062   84.1796   11.1306 C.3     1  UNL1        0.0342
     29 C          63.5842   84.7512   13.6296 C.ar    1  UNL1        0.1391
     30 C          61.4797   80.8112   14.1755 C.2     1  UNL1        0.0109
     31 C          59.9807   80.7557   14.1776 C.2     1  UNL1        0.0780
     32 C          59.2792   79.4423   14.3596 C.1     1  UNL1        0.1011
     33 N          58.5776   78.1290   14.5416 N.1     1  UNL1       -0.1908
@<TRIPOS>BOND
     1    22    23    1
     2    23    24   ar
     3    24    25   ar
     4    25    30    1
     5    30    31    2
     6    31    32    1
     7    32    33    3
     8    25    26   ar
     9    26    27   ar
    10    27    28    1
    11    27    29   ar
    12    29    21    1
    13    21     1    1
    14     1     2   ar
    15     2     3   ar
    16     3    10    1
    17    10    12    1
    18    12    13   ar
    19    13    14   ar
    20    14    15   ar
    21    15    19    1
    22    19    20    3
    23    15    16   ar
    24    16    17    1
    25    16    18   ar
    26     3     4   ar
    27     4     5   ar
    28     5     6   ar
    29     6     7   ar
    30     7     8   ar
    31     8     9   ar
    32    29    23   ar
    33     9     1   ar
    34    18    12   ar
    35     9     5   ar
    36    10    11    1
@<TRIPOS>MOLECULE
*****
 33 36 0 0 0
SMALL
GASTEIGER

@<TRIPOS>ATOM
      1 C          63.5212   86.6107   12.6047 C.ar    1  UNL1        0.2394
      2 N          63.8185   87.9267   13.2601 N.ar    1  UNL1       -0.1779
      3 C          63.0642   89.1564   12.8496 C.ar    1  UNL1        0.2232
      4 N          62.0124   89.0702   11.7835 N.ar    1  UNL1       -0.2128
      5 C          61.7151   87.7542   11.1280 C.ar    1  UNL1        0.0952
      6 C          60.7412   87.3643   10.0559 C.ar    1  UNL1        0.0268
      7 C          60.8938   85.8935    9.8038 C.ar    1  UNL1        0.0372
      8 S          61.9619   85.3745   10.7202 S.2     1  UNL1       -0.0803
      9 C          62.4695   86.5244   11.5386 C.ar    1  UNL1        0.1008
     10 N          63.3615   90.4725   13.5052 N.pl3   1  UNL1       -0.2824
     11 H          62.9980   90.6708   14.3984 H       1  UNL1        0.1551
     12 C          64.2127   91.4864   12.7998 C.ar    1  UNL1        0.0528
     13 C          64.0903   91.6662   11.3157 C.ar    1  UNL1        0.0155
     14 C          64.9415   92.6801   10.6103 C.ar    1  UNL1        0.0138
     15 C          65.9150   93.5142   11.3891 C.ar    1  UNL1        0.0959
     16 C          66.0374   93.3344   12.8732 C.ar    1  UNL1        0.1509
     17 F          67.0110   94.1684   13.6521 F       1  UNL1       -0.2034
     18 C          65.1862   92.3205   13.5786 C.ar    1  UNL1        0.0450
     19 C          66.7662   94.5281   10.6838 C.1     1  UNL1        0.1027
     20 N          67.6174   95.5420    9.9785 N.1     1  UNL1       -0.1908
     21 O          64.2756   85.3809   13.0152 O.3     1  UNL1       -0.4362
     22 C          62.6868   85.0751   15.5416 C.3     1  UNL1        0.0342
     23 C          62.7428   83.9510   14.5500 C.ar    1  UNL1        0.0124
     24 C          62.0044   82.6739   14.8217 C.ar    1  UNL1       -0.0012
     25 C          62.0604   81.5496   13.8301 C.ar    1  UNL1        0.0003
     26 C          62.8548   81.7025   12.5671 C.ar    1  UNL1       -0.0012
     27 C          63.5933   82.9797   12.2954 C.ar    1  UNL1        0.0124
     28 C          64.3876   83.1325   11.0323 C.3     1  UNL1        0.0342
     29 C          63.5372   84.1038   13.2869 C.ar    1  UNL1        0.1391
     30 C          61.3220   80.2725   14.1019 C.2     1  UNL1        0.0109
     31 C          59.8237   80.2728   14.1712 C.2     1  UNL1        0.0780
     32 C          59.0852   78.9956   14.4429 C.1     1  UNL1        0.1011
     33 N          58.3468   77.7186   14.7147 N.1     1  UNL1       -0.1908
@<TRIPOS>BOND
     1    22    23    1
     2    23    24   ar
     3    24    25   ar
     4    25    30    1
     5    30    31    2
     6    31    32    1
     7    32    33    3
     8    25    26   ar
     9    26    27   ar
    10    27    28    1
    11    27    29   ar
    12    29    21    1
    13    21     1    1
    14     1     2   ar
    15     2     3   ar
    16     3    10    1
    17    10    12    1
    18    12    13   ar
    19    13    14   ar
    20    14    15   ar
    21    15    19    1
    22    19    20    3
    23    15    16   ar
    24    16    17    1
    25    16    18   ar
    26     3     4   ar
    27     4     5   ar
    28     5     6   ar
    29     6     7   ar
    30     7     8   ar
    31     8     9   ar
    32    29    23   ar
    33     9     1   ar
    34    18    12   ar
    35     9     5   ar
    36    10    11    1
