@<TRIPOS>MOLECULE
*****
 32 36 0 0 0
SMALL
GASTEIGER

@<TRIPOS>ATOM
      1 O          63.5309   87.2689   12.9613 O.2     1  UNL1       -0.2699
      2 C          62.8451   86.4498   11.9082 C.2     1  UNL1        0.2506
      3 N          61.8070   87.0787   11.0268 N.am    1  UNL1       -0.2723
      4 C          61.1213   86.2596    9.9737 C.3     1  UNL1        0.1257
      5 C          60.0831   86.8885    9.0924 C.3     1  UNL1        0.1637
      6 O          59.7307   88.3364    9.2641 O.3     1  UNL1       -0.3502
      7 C          60.4164   89.1554   10.3172 C.3     1  UNL1        0.1622
      8 C          61.4546   88.5266   11.1985 C.3     1  UNL1        0.1096
      9 C          63.1976   85.0019   11.7365 C.ar    1  UNL1        0.0729
     10 C          63.3751   84.4313   10.3607 C.ar    1  UNL1        0.0061
     11 C          63.7276   82.9835   10.1889 C.ar    1  UNL1        0.0002
     12 C          63.9025   82.1063   11.3930 C.ar    1  UNL1        0.0016
     13 C          63.7249   82.6769   12.7688 C.ar    1  UNL1        0.0211
     14 C          63.3725   84.1247   12.9405 C.ar    1  UNL1        0.1072
     15 N          63.1949   84.6953   14.3164 N.ar    1  UNL1       -0.1477
     16 N          64.2601   85.3541   15.1419 N.ar    1  UNL1       -0.1447
     17 C          63.6445   85.7733   16.4440 C.ar    1  UNL1        0.1446
     18 C          62.1989   85.3735   16.4232 C.ar    1  UNL1        0.1446
     19 N          61.9211   84.7073   15.1083 N.ar    1  UNL1       -0.1447
     20 C          62.1403   89.3456   12.2516 C.3     1  UNL1        0.0487
     21 C          63.1289   90.4016   11.8549 C.ar    1  UNL1       -0.0203
     22 C          63.0620   91.0160   10.4882 C.ar    1  UNL1       -0.0033
     23 C          64.0506   92.0721   10.0914 C.ar    1  UNL1        0.0112
     24 C          65.1062   92.5136   11.0614 C.ar    1  UNL1        0.0607
     25 CL         66.0949   93.5695   10.6646 Cl      1  UNL1       -0.0821
     26 C          65.1732   91.8990   12.4281 C.ar    1  UNL1        0.0494
     27 C          64.1845   90.8430   12.8248 C.ar    1  UNL1       -0.0002
     28 C          66.2288   92.3405   13.3980 C.ar    1  UNL1        0.2045
     29 N          65.9913   93.0610   14.6921 N.ar    1  UNL1       -0.1829
     30 C          67.3229   93.3048   15.3381 C.ar    1  UNL1        0.3164
     31 O          68.3834   92.7350   14.4433 O.2     1  UNL1       -0.3274
     32 N          67.7073   92.1390   13.2442 N.ar    1  UNL1       -0.0554
@<TRIPOS>BOND
     1     1     2    2
     2     2     9    1
     3     9    10   ar
     4    10    11   ar
     5    11    12   ar
     6    12    13   ar
     7    13    14   ar
     8    14    15    1
     9    15    16   ar
    10    16    17   ar
    11    17    18   ar
    12    18    19   ar
    13     2     3   am
    14     3     4    1
    15     4     5    1
    16     5     6    1
    17     6     7    1
    18     7     8    1
    19     8    20    1
    20    20    21    1
    21    21    22   ar
    22    22    23   ar
    23    23    24   ar
    24    24    25    1
    25    24    26   ar
    26    26    28    1
    27    28    29   ar
    28    29    30   ar
    29    30    31   ar
    30    31    32   ar
    31    26    27   ar
    32    14     9   ar
    33    19    15   ar
    34     8     3    1
    35    27    21   ar
    36    32    28   ar
@<TRIPOS>MOLECULE
*****
 32 36 0 0 0
SMALL
GASTEIGER

@<TRIPOS>ATOM
      1 O          63.3319   87.4386   13.2649 O.2     1  UNL1       -0.2699
      2 C          62.7748   87.1350   11.9056 C.2     1  UNL1        0.2506
      3 N          61.9891   88.1777   11.1671 N.am    1  UNL1       -0.2723
      4 C          61.4320   87.8742    9.8079 C.3     1  UNL1        0.1257
      5 C          60.6463   88.9170    9.0694 C.3     1  UNL1        0.1637
      6 O          60.4176   90.2632    9.6902 O.3     1  UNL1       -0.3502
      7 C          60.9747   90.5667   11.0494 C.3     1  UNL1        0.1622
      8 C          61.7604   89.5240   11.7879 C.3     1  UNL1        0.1096
      9 C          63.0035   85.7887   11.2849 C.ar    1  UNL1        0.0729
     10 C          62.9996   85.6407    9.7922 C.ar    1  UNL1        0.0061
     11 C          63.2283   84.2945    9.1714 C.ar    1  UNL1        0.0002
     12 C          63.4608   83.0963   10.0433 C.ar    1  UNL1        0.0016
     13 C          63.4646   83.2443   11.5360 C.ar    1  UNL1        0.0211
     14 C          63.2360   84.5906   12.1568 C.ar    1  UNL1        0.1072
     15 N          63.2398   84.7386   13.6495 N.ar    1  UNL1       -0.1477
     16 N          62.0499   84.6004   14.5522 N.ar    1  UNL1       -0.1447
     17 C          62.5089   84.8272   15.9622 C.ar    1  UNL1        0.1446
     18 C          63.9825   85.1056   15.9308 C.ar    1  UNL1        0.1446
     19 N          64.4342   85.0508   14.5014 N.ar    1  UNL1       -0.1447
     20 C          62.3175   89.8276   13.1471 C.3     1  UNL1        0.0487
     21 C          63.6454   90.5128   13.2775 C.ar    1  UNL1       -0.0203
     22 C          64.4525   90.3517   14.5316 C.ar    1  UNL1       -0.0033
     23 C          65.7805   91.0370   14.6620 C.ar    1  UNL1        0.0112
     24 C          66.3014   91.8832   13.5384 C.ar    1  UNL1        0.0607
     25 CL         67.6293   92.5684   13.6688 Cl      1  UNL1       -0.0821
     26 C          65.4942   92.0442   12.2843 C.ar    1  UNL1        0.0494
     27 C          64.1663   91.3590   12.1539 C.ar    1  UNL1       -0.0002
     28 C          66.0151   92.8905   11.1607 C.ar    1  UNL1        0.2045
     29 N          67.1296   92.5256   10.2255 N.ar    1  UNL1       -0.1829
     30 C          67.3162   93.6598    9.2617 C.ar    1  UNL1        0.3164
     31 O          66.3170   94.7257    9.6013 O.2     1  UNL1       -0.3274
     32 N          65.5128   94.2503   10.7749 N.ar    1  UNL1       -0.0554
@<TRIPOS>BOND
     1     1     2    2
     2     2     9    1
     3     9    10   ar
     4    10    11   ar
     5    11    12   ar
     6    12    13   ar
     7    13    14   ar
     8    14    15    1
     9    15    16   ar
    10    16    17   ar
    11    17    18   ar
    12    18    19   ar
    13     2     3   am
    14     3     4    1
    15     4     5    1
    16     5     6    1
    17     6     7    1
    18     7     8    1
    19     8    20    1
    20    20    21    1
    21    21    22   ar
    22    22    23   ar
    23    23    24   ar
    24    24    25    1
    25    24    26   ar
    26    26    28    1
    27    28    29   ar
    28    29    30   ar
    29    30    31   ar
    30    31    32   ar
    31    26    27   ar
    32    14     9   ar
    33    19    15   ar
    34     8     3    1
    35    27    21   ar
    36    32    28   ar
@<TRIPOS>MOLECULE
*****
 32 36 0 0 0
SMALL
GASTEIGER

@<TRIPOS>ATOM
      1 O          63.5477   88.0165   12.5467 O.2     1  UNL1       -0.2699
      2 C          63.5110   86.9185   13.5680 C.2     1  UNL1        0.2506
      3 N          63.3666   87.2523   15.0232 N.am    1  UNL1       -0.2723
      4 C          63.3299   86.1543   16.0445 C.3     1  UNL1        0.1257
      5 C          63.1855   86.4882   17.4998 C.3     1  UNL1        0.1637
      6 O          63.0777   87.9200   17.9336 O.3     1  UNL1       -0.3502
      7 C          63.1144   89.0180   16.9123 C.3     1  UNL1        0.1622
      8 C          63.2588   88.6842   15.4571 C.3     1  UNL1        0.1096
      9 C          63.6188   85.4866   13.1340 C.ar    1  UNL1        0.0729
     10 C          64.4440   84.5212   13.9321 C.ar    1  UNL1        0.0061
     11 C          64.5518   83.0894   13.4982 C.ar    1  UNL1        0.0002
     12 C          63.8344   82.6231   12.2662 C.ar    1  UNL1        0.0016
     13 C          63.0093   83.5885   11.4681 C.ar    1  UNL1        0.0211
     14 C          62.9015   85.0203   11.9020 C.ar    1  UNL1        0.1072
     15 N          62.0763   85.9858   11.1039 N.ar    1  UNL1       -0.1477
     16 N          60.8675   86.7269   11.5932 N.ar    1  UNL1       -0.1447
     17 C          60.3592   87.5788   10.4680 C.ar    1  UNL1        0.1446
     18 C          61.2538   87.3641    9.2834 C.ar    1  UNL1        0.1446
     19 N          62.3151   86.3796    9.6763 N.ar    1  UNL1       -0.1447
     20 C          63.2955   89.7821   14.4358 C.3     1  UNL1        0.0487
     21 C          64.3453   90.8502   14.5202 C.ar    1  UNL1       -0.0203
     22 C          64.7946   91.3560   15.8589 C.ar    1  UNL1       -0.0033
     23 C          65.8444   92.4242   15.9434 C.ar    1  UNL1        0.0112
     24 C          66.4449   92.9864   14.6891 C.ar    1  UNL1        0.0607
     25 CL         67.4947   94.0544   14.7735 Cl      1  UNL1       -0.0821
     26 C          65.9955   92.4805   13.3503 C.ar    1  UNL1        0.0494
     27 C          64.9458   91.4124   13.2659 C.ar    1  UNL1       -0.0002
     28 C          66.5960   93.0427   12.0960 C.ar    1  UNL1        0.2045
     29 N          66.1360   94.2739   11.3732 N.ar    1  UNL1       -0.1829
     30 C          67.0176   94.4645   10.1747 C.ar    1  UNL1        0.3164
     31 O          68.0226   93.3511   10.1568 O.2     1  UNL1       -0.3274
     32 N          67.7621   92.4723   11.3442 N.ar    1  UNL1       -0.0554
@<TRIPOS>BOND
     1     1     2    2
     2     2     9    1
     3     9    10   ar
     4    10    11   ar
     5    11    12   ar
     6    12    13   ar
     7    13    14   ar
     8    14    15    1
     9    15    16   ar
    10    16    17   ar
    11    17    18   ar
    12    18    19   ar
    13     2     3   am
    14     3     4    1
    15     4     5    1
    16     5     6    1
    17     6     7    1
    18     7     8    1
    19     8    20    1
    20    20    21    1
    21    21    22   ar
    22    22    23   ar
    23    23    24   ar
    24    24    25    1
    25    24    26   ar
    26    26    28    1
    27    28    29   ar
    28    29    30   ar
    29    30    31   ar
    30    31    32   ar
    31    26    27   ar
    32    14     9   ar
    33    19    15   ar
    34     8     3    1
    35    27    21   ar
    36    32    28   ar
@<TRIPOS>MOLECULE
*****
 32 36 0 0 0
SMALL
GASTEIGER

@<TRIPOS>ATOM
      1 O          61.9180   85.7216   13.0672 O.2     1  UNL1       -0.2699
      2 C          62.4232   84.6572   12.1389 C.2     1  UNL1        0.2506
      3 N          62.6237   84.9639   10.6844 N.am    1  UNL1       -0.2723
      4 C          63.1289   83.8994    9.7561 C.3     1  UNL1        0.1257
      5 C          63.3293   84.2062    8.3015 C.3     1  UNL1        0.1637
      6 O          63.0246   85.5774    7.7753 O.3     1  UNL1       -0.3502
      7 C          62.5195   86.6418    8.7036 C.3     1  UNL1        0.1622
      8 C          62.3190   86.3351   10.1581 C.3     1  UNL1        0.1096
      9 C          62.7279   83.2859   12.6652 C.ar    1  UNL1        0.0729
     10 C          62.5473   82.0866   11.7826 C.ar    1  UNL1        0.0061
     11 C          62.8520   80.7154   12.3089 C.ar    1  UNL1        0.0002
     12 C          63.3373   80.5436   13.7177 C.ar    1  UNL1        0.0016
     13 C          63.5179   81.7429   14.6003 C.ar    1  UNL1        0.0211
     14 C          63.2132   83.1141   14.0741 C.ar    1  UNL1        0.1072
     15 N          63.3938   84.3134   14.9567 N.ar    1  UNL1       -0.1477
     16 N          64.5028   85.3190   14.8618 N.ar    1  UNL1       -0.1447
     17 C          64.2915   86.3448   15.9356 C.ar    1  UNL1        0.1446
     18 C          63.0520   85.9732   16.6942 C.ar    1  UNL1        0.1446
     19 N          62.4972   84.7177   16.0892 N.ar    1  UNL1       -0.1447
     20 C          61.8138   87.3996   11.0864 C.3     1  UNL1        0.0487
     21 C          62.4783   88.7439   11.1183 C.ar    1  UNL1       -0.0203
     22 C          62.5186   89.5902    9.8805 C.ar    1  UNL1       -0.0033
     23 C          63.1832   90.9346    9.9124 C.ar    1  UNL1        0.0112
     24 C          63.8073   91.4328   11.1822 C.ar    1  UNL1        0.0607
     25 CL         64.4718   92.7771   11.2141 Cl      1  UNL1       -0.0821
     26 C          63.7670   90.5864   12.4200 C.ar    1  UNL1        0.0494
     27 C          63.1025   89.2421   12.3881 C.ar    1  UNL1       -0.0002
     28 C          64.3911   91.0846   13.6898 C.ar    1  UNL1        0.2045
     29 N          65.8503   91.3549   13.9080 N.ar    1  UNL1       -0.1829
     30 C          66.0268   91.8372   15.3174 C.ar    1  UNL1        0.3164
     31 O          64.6766   91.8649   15.9702 O.2     1  UNL1       -0.3274
     32 N          63.6656   91.3998   14.9643 N.ar    1  UNL1       -0.0554
@<TRIPOS>BOND
     1     1     2    2
     2     2     9    1
     3     9    10   ar
     4    10    11   ar
     5    11    12   ar
     6    12    13   ar
     7    13    14   ar
     8    14    15    1
     9    15    16   ar
    10    16    17   ar
    11    17    18   ar
    12    18    19   ar
    13     2     3   am
    14     3     4    1
    15     4     5    1
    16     5     6    1
    17     6     7    1
    18     7     8    1
    19     8    20    1
    20    20    21    1
    21    21    22   ar
    22    22    23   ar
    23    23    24   ar
    24    24    25    1
    25    24    26   ar
    26    26    28    1
    27    28    29   ar
    28    29    30   ar
    29    30    31   ar
    30    31    32   ar
    31    26    27   ar
    32    14     9   ar
    33    19    15   ar
    34     8     3    1
    35    27    21   ar
    36    32    28   ar
@<TRIPOS>MOLECULE
*****
 32 36 0 0 0
SMALL
GASTEIGER

@<TRIPOS>ATOM
      1 O          64.0851   91.5987   11.8544 O.2     1  UNL1       -0.2699
      2 C          64.5646   90.9436   13.1156 C.2     1  UNL1        0.2506
      3 N          64.2361   89.5051   13.3853 N.am    1  UNL1       -0.2723
      4 C          64.7157   88.8500   14.6466 C.3     1  UNL1        0.1257
      5 C          64.3871   87.4114   14.9162 C.3     1  UNL1        0.1637
      6 O          63.5791   86.6280   13.9246 O.3     1  UNL1       -0.3502
      7 C          63.0995   87.2832   12.6633 C.3     1  UNL1        0.1622
      8 C          63.4280   88.7217   12.3936 C.3     1  UNL1        0.1096
      9 C          65.3727   91.7270   14.1073 C.ar    1  UNL1        0.0729
     10 C          65.0496   91.6452   15.5698 C.ar    1  UNL1        0.0061
     11 C          65.8576   92.4285   16.5614 C.ar    1  UNL1        0.0002
     12 C          66.9888   93.2938   16.0905 C.ar    1  UNL1        0.0016
     13 C          67.3119   93.3756   14.6281 C.ar    1  UNL1        0.0211
     14 C          66.5039   92.5923   13.6364 C.ar    1  UNL1        0.1072
     15 N          66.8270   92.6742   12.1739 N.ar    1  UNL1       -0.1477
     16 N          67.8509   91.8512   11.4498 N.ar    1  UNL1       -0.1447
     17 C          67.8397   92.2618   10.0071 C.ar    1  UNL1        0.1446
     18 C          66.8089   93.3385    9.8396 C.ar    1  UNL1        0.1446
     19 N          66.1830   93.5934   11.1788 N.ar    1  UNL1       -0.1447
     20 C          62.9485   89.3768   11.1324 C.3     1  UNL1        0.0487
     21 C          61.8433   88.7501   10.3351 C.ar    1  UNL1       -0.0203
     22 C          60.4375   89.2534   10.4773 C.ar    1  UNL1       -0.0033
     23 C          59.3322   88.6266    9.6799 C.ar    1  UNL1        0.0112
     24 C          59.6329   87.4966    8.7404 C.ar    1  UNL1        0.0607
     25 CL         58.5277   86.8699    7.9431 Cl      1  UNL1       -0.0821
     26 C          61.0388   86.9933    8.5982 C.ar    1  UNL1        0.0494
     27 C          62.1440   87.6201    9.3955 C.ar    1  UNL1       -0.0002
     28 C          61.3395   85.8633    7.6587 C.ar    1  UNL1        0.2045
     29 N          62.6812   85.2276    7.4450 N.ar    1  UNL1       -0.1829
     30 C          62.5222   84.1420    6.4222 C.ar    1  UNL1        0.3164
     31 O          61.0822   84.1068    6.0037 O.2     1  UNL1       -0.3274
     32 N          60.3511   85.1706    6.7679 N.ar    1  UNL1       -0.0554
@<TRIPOS>BOND
     1     1     2    2
     2     2     9    1
     3     9    10   ar
     4    10    11   ar
     5    11    12   ar
     6    12    13   ar
     7    13    14   ar
     8    14    15    1
     9    15    16   ar
    10    16    17   ar
    11    17    18   ar
    12    18    19   ar
    13     2     3   am
    14     3     4    1
    15     4     5    1
    16     5     6    1
    17     6     7    1
    18     7     8    1
    19     8    20    1
    20    20    21    1
    21    21    22   ar
    22    22    23   ar
    23    23    24   ar
    24    24    25    1
    25    24    26   ar
    26    26    28    1
    27    28    29   ar
    28    29    30   ar
    29    30    31   ar
    30    31    32   ar
    31    26    27   ar
    32    14     9   ar
    33    19    15   ar
    34     8     3    1
    35    27    21   ar
    36    32    28   ar
