@<TRIPOS>MOLECULE
*****
 26 28 0 0 0
SMALL
GASTEIGER

@<TRIPOS>ATOM
      1 C          64.6538   90.0508   14.4510 C.3     1  UNL1        0.1385
      2 O          66.0564   89.6820   14.8340 O.3     1  UNL1       -0.3802
      3 H          66.6735   90.3356   14.4697 H       1  UNL1        0.2108
      4 C          64.1374   88.8483   15.1840 C.ar    1  UNL1        0.0317
      5 C          64.4000   87.4726   14.6469 C.ar    1  UNL1        0.0026
      6 C          63.8836   86.2701   15.3799 C.ar    1  UNL1        0.0295
      7 C          63.1047   86.4432   16.6501 C.ar    1  UNL1        0.1424
      8 F          62.5883   85.2407   17.3831 F       1  UNL1       -0.2041
      9 C          62.8421   87.8190   17.1872 C.ar    1  UNL1        0.0590
     10 C          63.3584   89.0215   16.4542 C.ar    1  UNL1        0.1406
     11 F          63.0959   90.3972   16.9913 F       1  UNL1       -0.2044
     12 C          64.7755   91.8943   12.7643 C.3     1  UNL1        0.0092
     13 C          65.1702   91.2533   13.7180 C.3     1  UNL1        0.0732
     14 C          66.4470   91.9076   14.1560 C.ar    1  UNL1        0.0919
     15 N          67.6726   91.8106   13.2967 N.ar    1  UNL1       -0.2260
     16 C          68.9493   92.4648   13.7347 C.ar    1  UNL1        0.1987
     17 N          69.0004   93.2161   15.0320 N.ar    1  UNL1       -0.2201
     18 C          67.7748   93.3130   15.8913 C.ar    1  UNL1        0.1314
     19 C          66.4981   92.6588   15.4533 C.ar    1  UNL1        0.1727
     20 F          65.2724   92.7558   16.3126 F       1  UNL1       -0.2013
     21 C          63.2512   90.4196   14.0680 C.3     1  UNL1        0.1826
     22 N          62.5531   89.6742   12.9694 N.ar    1  UNL1       -0.1480
     23 N          63.2138   88.8445   11.9086 N.ar    1  UNL1       -0.1263
     24 C          62.1407   88.2852   11.0223 C.ar    1  UNL1        0.2447
     25 N          60.8168   88.7690   11.5352 N.ar    1  UNL1       -0.1044
     26 N          61.0716   89.6275   12.7385 N.ar    1  UNL1       -0.0449
@<TRIPOS>BOND
     1    13    12    1
     2    13    14    1
     3    14    15   ar
     4    15    16   ar
     5    16    17   ar
     6    17    18   ar
     7    18    19   ar
     8    19    20    1
     9    13     1    1
    10     1     2    1
    11     1    21    1
    12    21    22    1
    13    22    23   ar
    14    23    24   ar
    15    24    25   ar
    16    25    26   ar
    17     1     4    1
    18     4     5   ar
    19     5     6   ar
    20     6     7   ar
    21     7     8    1
    22     7     9   ar
    23     9    10   ar
    24    10    11    1
    25    19    14   ar
    26    26    22   ar
    27    10     4   ar
    28     2     3    1
@<TRIPOS>MOLECULE
*****
 26 28 0 0 0
SMALL
GASTEIGER

@<TRIPOS>ATOM
      1 C          61.6756   89.6279   11.4244 C.3     1  UNL1        0.1385
      2 O          60.7659   90.7250   11.8921 O.3     1  UNL1       -0.3802
      3 H          59.8467   90.4164   11.8651 H       1  UNL1        0.2108
      4 C          62.8616   90.5219   11.6341 C.ar    1  UNL1        0.0317
      5 C          63.5083   91.1974   10.4612 C.ar    1  UNL1        0.0026
      6 C          64.6943   92.0914   10.6709 C.ar    1  UNL1        0.0295
      7 C          65.2338   92.3100   12.0533 C.ar    1  UNL1        0.1424
      8 F          66.4198   93.2040   12.2630 F       1  UNL1       -0.2041
      9 C          64.5871   91.6345   13.2262 C.ar    1  UNL1        0.0590
     10 C          63.4011   90.7405   13.0166 C.ar    1  UNL1        0.1406
     11 F          62.7544   90.0650   14.1894 F       1  UNL1       -0.2044
     12 C          59.6395   88.2728   11.9504 C.3     1  UNL1        0.0092
     13 C          60.4895   88.7338   11.2148 C.3     1  UNL1        0.0732
     14 C          60.1679   88.2242    9.8411 C.ar    1  UNL1        0.0919
     15 N          60.1837   86.7499    9.5654 N.ar    1  UNL1       -0.2260
     16 C          59.8621   86.2403    8.1918 C.ar    1  UNL1        0.1987
     17 N          59.5248   87.2051    7.0938 N.ar    1  UNL1       -0.2201
     18 C          59.5091   88.6795    7.3696 C.ar    1  UNL1        0.1314
     19 C          59.8307   89.1890    8.7432 C.ar    1  UNL1        0.1727
     20 F          59.8150   90.6634    9.0190 F       1  UNL1       -0.2013
     21 C          62.5853   88.5307   10.9568 C.3     1  UNL1        0.1826
     22 N          62.8678   87.3590   11.8496 N.ar    1  UNL1       -0.1480
     23 N          62.5202   85.9282   11.5632 N.ar    1  UNL1       -0.1263
     24 C          62.9852   85.0973   12.7223 C.ar    1  UNL1        0.2447
     25 N          63.6201   86.0145   13.7251 N.ar    1  UNL1       -0.1044
     26 N          63.5476   87.4123   13.1858 N.ar    1  UNL1       -0.0449
@<TRIPOS>BOND
     1    13    12    1
     2    13    14    1
     3    14    15   ar
     4    15    16   ar
     5    16    17   ar
     6    17    18   ar
     7    18    19   ar
     8    19    20    1
     9    13     1    1
    10     1     2    1
    11     1    21    1
    12    21    22    1
    13    22    23   ar
    14    23    24   ar
    15    24    25   ar
    16    25    26   ar
    17     1     4    1
    18     4     5   ar
    19     5     6   ar
    20     6     7   ar
    21     7     8    1
    22     7     9   ar
    23     9    10   ar
    24    10    11    1
    25    19    14   ar
    26    26    22   ar
    27    10     4   ar
    28     2     3    1
@<TRIPOS>MOLECULE
*****
 26 28 0 0 0
SMALL
GASTEIGER

@<TRIPOS>ATOM
      1 C          65.3397   92.5545   11.7291 C.3     1  UNL1        0.1385
      2 O          64.9696   91.7367   10.5274 O.3     1  UNL1       -0.3802
      3 H          64.4655   90.9575   10.8094 H       1  UNL1        0.2108
      4 C          66.0357   93.5436   10.8417 C.ar    1  UNL1        0.0317
      5 C          65.5742   94.9702   10.8021 C.ar    1  UNL1        0.0026
      6 C          66.2702   95.9592    9.9147 C.ar    1  UNL1        0.0295
      7 C          67.4276   95.5216    9.0669 C.ar    1  UNL1        0.1424
      8 F          68.1236   96.5106    8.1795 F       1  UNL1       -0.2041
      9 C          67.8892   94.0948    9.1065 C.ar    1  UNL1        0.0590
     10 C          67.1932   93.1058    9.9939 C.ar    1  UNL1        0.1406
     11 F          67.6547   91.6792   10.0336 F       1  UNL1       -0.2044
     12 C          64.7436   91.2684   13.7904 C.3     1  UNL1        0.0092
     13 C          64.6438   91.5655   12.6166 C.3     1  UNL1        0.0732
     14 C          63.5653   90.6854   12.0576 C.ar    1  UNL1        0.0919
     15 N          62.5863   91.2376   11.0643 N.ar    1  UNL1       -0.2260
     16 C          61.5079   90.3575   10.5054 C.ar    1  UNL1        0.1987
     17 N          61.4085   88.9252   10.9398 N.ar    1  UNL1       -0.2201
     18 C          62.3875   88.3730   11.9331 C.ar    1  UNL1        0.1314
     19 C          63.4659   89.2531   12.4920 C.ar    1  UNL1        0.1727
     20 F          64.4449   88.7010   13.4854 F       1  UNL1       -0.2013
     21 C          65.7099   93.3724   12.9309 C.3     1  UNL1        0.1826
     22 N          66.9934   93.0994   13.6574 N.ar    1  UNL1       -0.1480
     23 N          67.3587   93.6041   15.0220 N.ar    1  UNL1       -0.1263
     24 C          68.7282   93.0904   15.3548 C.ar    1  UNL1        0.2447
     25 N          69.2093   92.2683   14.1961 N.ar    1  UNL1       -0.1044
     26 N          68.1372   92.2739   13.1470 N.ar    1  UNL1       -0.0449
@<TRIPOS>BOND
     1    13    12    1
     2    13    14    1
     3    14    15   ar
     4    15    16   ar
     5    16    17   ar
     6    17    18   ar
     7    18    19   ar
     8    19    20    1
     9    13     1    1
    10     1     2    1
    11     1    21    1
    12    21    22    1
    13    22    23   ar
    14    23    24   ar
    15    24    25   ar
    16    25    26   ar
    17     1     4    1
    18     4     5   ar
    19     5     6   ar
    20     6     7   ar
    21     7     8    1
    22     7     9   ar
    23     9    10   ar
    24    10    11    1
    25    19    14   ar
    26    26    22   ar
    27    10     4   ar
    28     2     3    1
@<TRIPOS>MOLECULE
*****
 26 28 0 0 0
SMALL
GASTEIGER

@<TRIPOS>ATOM
      1 C          61.8248   89.6997   11.4666 C.3     1  UNL1        0.1385
      2 O          60.9033   90.8350   11.8010 O.3     1  UNL1       -0.3802
      3 H          59.9832   90.5362   11.7304 H       1  UNL1        0.2108
      4 C          63.0082   90.5912   11.7007 C.ar    1  UNL1        0.0317
      5 C          63.6160   90.6870   13.0686 C.ar    1  UNL1        0.0026
      6 C          64.7994   91.5785   13.3027 C.ar    1  UNL1        0.0295
      7 C          65.3750   92.3742   12.1689 C.ar    1  UNL1        0.1424
      8 F          66.5584   93.2657   12.4030 F       1  UNL1       -0.2041
      9 C          64.7671   92.2784   10.8008 C.ar    1  UNL1        0.0590
     10 C          63.5837   91.3869   10.5667 C.ar    1  UNL1        0.1406
     11 F          62.9759   91.2910    9.1988 F       1  UNL1       -0.2044
     12 C          59.8252   88.2801   11.9612 C.3     1  UNL1        0.0092
     13 C          60.6414   88.8082   11.2325 C.3     1  UNL1        0.0732
     14 C          60.2732   88.4017    9.8363 C.ar    1  UNL1        0.0919
     15 N          59.8878   89.4439    8.8287 N.ar    1  UNL1       -0.2260
     16 C          59.5196   89.0374    7.4326 C.ar    1  UNL1        0.1987
     17 N          59.5368   87.5886    7.0441 N.ar    1  UNL1       -0.2201
     18 C          59.9222   86.5465    8.0517 C.ar    1  UNL1        0.1314
     19 C          60.2904   86.9530    9.4478 C.ar    1  UNL1        0.1727
     20 F          60.6758   85.9107   10.4554 F       1  UNL1       -0.2013
     21 C          62.7463   88.5643   11.1321 C.3     1  UNL1        0.1826
     22 N          63.0720   87.5320   12.1704 N.ar    1  UNL1       -0.1480
     23 N          62.8078   86.0593   12.0628 N.ar    1  UNL1       -0.1263
     24 C          63.2917   85.4082   13.3246 C.ar    1  UNL1        0.2447
     25 N          63.8549   86.4784   14.2120 N.ar    1  UNL1       -0.1044
     26 N          63.7192   87.7909   13.4987 N.ar    1  UNL1       -0.0449
@<TRIPOS>BOND
     1    13    12    1
     2    13    14    1
     3    14    15   ar
     4    15    16   ar
     5    16    17   ar
     6    17    18   ar
     7    18    19   ar
     8    19    20    1
     9    13     1    1
    10     1     2    1
    11     1    21    1
    12    21    22    1
    13    22    23   ar
    14    23    24   ar
    15    24    25   ar
    16    25    26   ar
    17     1     4    1
    18     4     5   ar
    19     5     6   ar
    20     6     7   ar
    21     7     8    1
    22     7     9   ar
    23     9    10   ar
    24    10    11    1
    25    19    14   ar
    26    26    22   ar
    27    10     4   ar
    28     2     3    1
@<TRIPOS>MOLECULE
*****
 26 28 0 0 0
SMALL
GASTEIGER

@<TRIPOS>ATOM
      1 C          61.3298   88.0490   10.2968 C.3     1  UNL1        0.1385
      2 O          61.7619   89.1183    9.3378 O.3     1  UNL1       -0.3802
      3 H          61.7699   89.9756    9.7916 H       1  UNL1        0.2108
      4 C          61.4694   87.0210    9.2134 C.ar    1  UNL1        0.0317
      5 C          62.8111   86.4178    8.9202 C.ar    1  UNL1        0.0026
      6 C          62.9508   85.3898    7.8369 C.ar    1  UNL1        0.0295
      7 C          61.7487   84.9650    7.0467 C.ar    1  UNL1        0.1424
      8 F          61.8883   83.9370    5.9633 F       1  UNL1       -0.2041
      9 C          60.4069   85.5681    7.3398 C.ar    1  UNL1        0.0590
     10 C          60.2672   86.5961    8.4232 C.ar    1  UNL1        0.1406
     11 F          58.9255   87.1992    8.7163 F       1  UNL1       -0.2044
     12 C          60.2414   89.6045   11.9261 C.3     1  UNL1        0.0092
     13 C          61.1901   89.0770   11.3802 C.3     1  UNL1        0.0732
     14 C          62.4137   89.6668   12.0166 C.ar    1  UNL1        0.0919
     15 N          62.9732   89.0614   13.2697 N.ar    1  UNL1       -0.2260
     16 C          64.1967   89.6512   13.9061 C.ar    1  UNL1        0.1987
     17 N          64.8608   90.8465   13.2894 N.ar    1  UNL1       -0.2201
     18 C          64.3013   91.4519   12.0363 C.ar    1  UNL1        0.1314
     19 C          63.0777   90.8621   11.3999 C.ar    1  UNL1        0.1727
     20 F          62.5182   91.4676   10.1467 F       1  UNL1       -0.2013
     21 C          60.8976   86.9796   11.2558 C.3     1  UNL1        0.1826
     22 N          61.8876   85.9626   11.7409 N.ar    1  UNL1       -0.1480
     23 N          61.9766   84.5343   11.2912 N.ar    1  UNL1       -0.1263
     24 C          63.1066   83.8843   12.0334 C.ar    1  UNL1        0.2447
     25 N          63.7158   84.9107   12.9418 N.ar    1  UNL1       -0.1044
     26 N          62.9625   86.1951   12.7611 N.ar    1  UNL1       -0.0449
@<TRIPOS>BOND
     1    13    12    1
     2    13    14    1
     3    14    15   ar
     4    15    16   ar
     5    16    17   ar
     6    17    18   ar
     7    18    19   ar
     8    19    20    1
     9    13     1    1
    10     1     2    1
    11     1    21    1
    12    21    22    1
    13    22    23   ar
    14    23    24   ar
    15    24    25   ar
    16    25    26   ar
    17     1     4    1
    18     4     5   ar
    19     5     6   ar
    20     6     7   ar
    21     7     8    1
    22     7     9   ar
    23     9    10   ar
    24    10    11    1
    25    19    14   ar
    26    26    22   ar
    27    10     4   ar
    28     2     3    1
@<TRIPOS>MOLECULE
*****
 26 28 0 0 0
SMALL
GASTEIGER

@<TRIPOS>ATOM
      1 C          63.5500   85.0276   12.5237 C.3     1  UNL1        0.1385
      2 O          63.1802   86.4485   12.8308 O.3     1  UNL1       -0.3802
      3 H          63.4919   86.6788   13.7200 H       1  UNL1        0.2108
      4 C          62.9080   85.1523   11.1738 C.ar    1  UNL1        0.0317
      5 C          61.6562   85.9624   11.0106 C.ar    1  UNL1        0.0026
      6 C          61.0141   86.0871    9.6607 C.ar    1  UNL1        0.0295
      7 C          61.6239   85.4017    8.4740 C.ar    1  UNL1        0.1424
      8 F          60.9819   85.5264    7.1240 F       1  UNL1       -0.2041
      9 C          62.8758   84.5915    8.6371 C.ar    1  UNL1        0.0590
     10 C          63.5178   84.4668    9.9870 C.ar    1  UNL1        0.1406
     11 F          64.7696   83.6567   10.1502 F       1  UNL1       -0.2044
     12 C          65.1171   84.2479   14.3111 C.3     1  UNL1        0.0092
     13 C          64.1920   84.9029   13.8736 C.3     1  UNL1        0.0732
     14 C          63.6750   85.7101   15.0274 C.ar    1  UNL1        0.0919
     15 N          64.0180   87.1661   15.1377 N.ar    1  UNL1       -0.2260
     16 C          63.5009   87.9731   16.2915 C.ar    1  UNL1        0.1987
     17 N          62.6409   87.3241   17.3351 N.ar    1  UNL1       -0.2201
     18 C          62.2979   85.8681   17.2248 C.ar    1  UNL1        0.1314
     19 C          62.8149   85.0610   16.0710 C.ar    1  UNL1        0.1727
     20 F          62.4719   83.6049   15.9608 F       1  UNL1       -0.2013
     21 C          63.9198   83.6068   12.2165 C.3     1  UNL1        0.1826
     22 N          63.2373   82.4817   12.9365 N.ar    1  UNL1       -0.1480
     23 N          61.7773   82.4068   13.2724 N.ar    1  UNL1       -0.1263
     24 C          61.5328   81.1127   13.9906 C.ar    1  UNL1        0.2447
     25 N          62.8415   80.3879   14.0985 N.ar    1  UNL1       -0.1044
     26 N          63.8950   81.2339   13.4471 N.ar    1  UNL1       -0.0449
@<TRIPOS>BOND
     1    13    12    1
     2    13    14    1
     3    14    15   ar
     4    15    16   ar
     5    16    17   ar
     6    17    18   ar
     7    18    19   ar
     8    19    20    1
     9    13     1    1
    10     1     2    1
    11     1    21    1
    12    21    22    1
    13    22    23   ar
    14    23    24   ar
    15    24    25   ar
    16    25    26   ar
    17     1     4    1
    18     4     5   ar
    19     5     6   ar
    20     6     7   ar
    21     7     8    1
    22     7     9   ar
    23     9    10   ar
    24    10    11    1
    25    19    14   ar
    26    26    22   ar
    27    10     4   ar
    28     2     3    1
@<TRIPOS>MOLECULE
*****
 26 28 0 0 0
SMALL
GASTEIGER

@<TRIPOS>ATOM
      1 C          61.9593   87.7131   11.4408 C.3     1  UNL1        0.1385
      2 O          63.3756   87.9927   11.8480 O.3     1  UNL1       -0.3802
      3 H          63.4514   88.9136   12.1430 H       1  UNL1        0.2108
      4 C          62.3357   86.3014   11.1008 C.ar    1  UNL1        0.0317
      5 C          62.2778   85.2353   12.1543 C.ar    1  UNL1        0.0026
      6 C          62.6542   83.8237   11.8143 C.ar    1  UNL1        0.0295
      7 C          63.0885   83.4782   10.4208 C.ar    1  UNL1        0.1424
      8 F          63.4649   82.0665   10.0808 F       1  UNL1       -0.2041
      9 C          63.1464   84.5443    9.3672 C.ar    1  UNL1        0.0590
     10 C          62.7700   85.9560    9.7072 C.ar    1  UNL1        0.1406
     11 F          62.8279   87.0221    8.6536 F       1  UNL1       -0.2044
     12 C          60.5272   89.7208   11.8614 C.3     1  UNL1        0.0092
     13 C          61.5829   89.1247   11.7808 C.3     1  UNL1        0.0732
     14 C          62.6491   90.1254   12.1154 C.ar    1  UNL1        0.0919
     15 N          63.1284   90.2660   13.5297 N.ar    1  UNL1       -0.2260
     16 C          64.1946   91.2667   13.8642 C.ar    1  UNL1        0.1987
     17 N          64.7815   92.1267   12.7844 N.ar    1  UNL1       -0.2201
     18 C          64.3021   91.9860   11.3700 C.ar    1  UNL1        0.1314
     19 C          63.2359   90.9854   11.0355 C.ar    1  UNL1        0.1727
     20 F          62.7566   90.8447    9.6211 F       1  UNL1       -0.2013
     21 C          60.5429   87.4335   11.0336 C.3     1  UNL1        0.1826
     22 N          60.1137   87.6526    9.6132 N.ar    1  UNL1       -0.1480
     23 N          59.4859   86.6292    8.7139 N.ar    1  UNL1       -0.1263
     24 C          59.2212   87.2778    7.3875 C.ar    1  UNL1        0.2447
     25 N          59.6853   88.7020    7.4669 N.ar    1  UNL1       -0.1044
     26 N          60.2370   88.9336    8.8424 N.ar    1  UNL1       -0.0449
@<TRIPOS>BOND
     1    13    12    1
     2    13    14    1
     3    14    15   ar
     4    15    16   ar
     5    16    17   ar
     6    17    18   ar
     7    18    19   ar
     8    19    20    1
     9    13     1    1
    10     1     2    1
    11     1    21    1
    12    21    22    1
    13    22    23   ar
    14    23    24   ar
    15    24    25   ar
    16    25    26   ar
    17     1     4    1
    18     4     5   ar
    19     5     6   ar
    20     6     7   ar
    21     7     8    1
    22     7     9   ar
    23     9    10   ar
    24    10    11    1
    25    19    14   ar
    26    26    22   ar
    27    10     4   ar
    28     2     3    1
@<TRIPOS>MOLECULE
*****
 26 28 0 0 0
SMALL
GASTEIGER

@<TRIPOS>ATOM
      1 C          62.6931   87.6667   11.7535 C.3     1  UNL1        0.1385
      2 O          63.6046   87.0147   12.7505 O.3     1  UNL1       -0.3802
      3 H          63.4255   86.0618   12.7776 H       1  UNL1        0.2108
      4 C          63.3092   88.9992   12.0616 C.ar    1  UNL1        0.0317
      5 C          63.3866   90.0537   10.9977 C.ar    1  UNL1        0.0026
      6 C          64.0027   91.3862   11.3058 C.ar    1  UNL1        0.0295
      7 C          64.5413   91.6642   12.6779 C.ar    1  UNL1        0.1424
      8 F          65.1574   92.9966   12.9860 F       1  UNL1       -0.2041
      9 C          64.4639   90.6096   13.7419 C.ar    1  UNL1        0.0590
     10 C          63.8478   89.2771   13.4338 C.ar    1  UNL1        0.1406
     11 F          63.7704   88.2226   14.4977 F       1  UNL1       -0.2044
     12 C          61.2215   85.9592   10.6685 C.3     1  UNL1        0.0092
     13 C          62.0770   86.3342   11.4454 C.3     1  UNL1        0.0732
     14 C          62.5254   85.1108   12.1885 C.ar    1  UNL1        0.0919
     15 N          62.1686   84.9392   13.6353 N.ar    1  UNL1       -0.2260
     16 C          62.6171   83.7158   14.3783 C.ar    1  UNL1        0.1987
     17 N          63.4223   82.6640   13.6746 N.ar    1  UNL1       -0.2201
     18 C          63.7791   82.8355   12.2278 C.ar    1  UNL1        0.1314
     19 C          63.3307   84.0589   11.4848 C.ar    1  UNL1        0.1727
     20 F          63.6875   84.2306   10.0379 F       1  UNL1       -0.2013
     21 C          61.7816   88.3187   10.7565 C.3     1  UNL1        0.1826
     22 N          60.6156   89.1358   11.2285 N.ar    1  UNL1       -0.1480
     23 N          59.7152   88.8036   12.3813 N.ar    1  UNL1       -0.1263
     24 C          58.6883   89.8912   12.4957 C.ar    1  UNL1        0.2447
     25 N          58.9541   90.8954   11.4137 N.ar    1  UNL1       -0.1044
     26 N          60.1452   90.4286   10.6305 N.ar    1  UNL1       -0.0449
@<TRIPOS>BOND
     1    13    12    1
     2    13    14    1
     3    14    15   ar
     4    15    16   ar
     5    16    17   ar
     6    17    18   ar
     7    18    19   ar
     8    19    20    1
     9    13     1    1
    10     1     2    1
    11     1    21    1
    12    21    22    1
    13    22    23   ar
    14    23    24   ar
    15    24    25   ar
    16    25    26   ar
    17     1     4    1
    18     4     5   ar
    19     5     6   ar
    20     6     7   ar
    21     7     8    1
    22     7     9   ar
    23     9    10   ar
    24    10    11    1
    25    19    14   ar
    26    26    22   ar
    27    10     4   ar
    28     2     3    1
@<TRIPOS>MOLECULE
*****
 26 28 0 0 0
SMALL
GASTEIGER

@<TRIPOS>ATOM
      1 C          63.5766   85.5236   13.0457 C.3     1  UNL1        0.1385
      2 O          62.9995   84.7319   11.9098 O.3     1  UNL1       -0.3802
      3 H          63.2205   83.7943   12.0241 H       1  UNL1        0.2108
      4 C          63.0101   86.7815   12.4567 C.ar    1  UNL1        0.0317
      5 C          63.5839   88.1135   12.8395 C.ar    1  UNL1        0.0026
      6 C          63.0174   89.3713   12.2505 C.ar    1  UNL1        0.0295
      7 C          61.8773   89.2972   11.2787 C.ar    1  UNL1        0.1424
      8 F          61.3108   90.5551   10.6897 F       1  UNL1       -0.2041
      9 C          61.3035   87.9652   10.8959 C.ar    1  UNL1        0.0590
     10 C          61.8699   86.7073   11.4848 C.ar    1  UNL1        0.1406
     11 F          61.2962   85.3753   11.1020 F       1  UNL1       -0.2044
     12 C          65.1544   84.0053   14.2556 C.3     1  UNL1        0.0092
     13 C          64.1430   84.2657   13.6347 C.3     1  UNL1        0.0732
     14 C          63.3966   82.9717   13.4988 C.ar    1  UNL1        0.0919
     15 N          62.2499   82.6673   14.4166 N.ar    1  UNL1       -0.2260
     16 C          61.5036   81.3733   14.2808 C.ar    1  UNL1        0.1987
     17 N          61.9040   80.3836   13.2271 N.ar    1  UNL1       -0.2201
     18 C          63.0507   80.6880   12.3093 C.ar    1  UNL1        0.1314
     19 C          63.7970   81.9820   12.4451 C.ar    1  UNL1        0.1727
     20 F          64.9438   82.2864   11.5273 F       1  UNL1       -0.2013
     21 C          64.1536   86.3153   14.1816 C.3     1  UNL1        0.1826
     22 N          63.3861   86.4582   15.4623 N.ar    1  UNL1       -0.1480
     23 N          63.4759   87.6088   16.4205 N.ar    1  UNL1       -0.1263
     24 C          62.5392   87.3371   17.5602 C.ar    1  UNL1        0.2447
     25 N          61.8705   86.0186   17.3065 N.ar    1  UNL1       -0.1044
     26 N          62.3939   85.4754   16.0100 N.ar    1  UNL1       -0.0449
@<TRIPOS>BOND
     1    13    12    1
     2    13    14    1
     3    14    15   ar
     4    15    16   ar
     5    16    17   ar
     6    17    18   ar
     7    18    19   ar
     8    19    20    1
     9    13     1    1
    10     1     2    1
    11     1    21    1
    12    21    22    1
    13    22    23   ar
    14    23    24   ar
    15    24    25   ar
    16    25    26   ar
    17     1     4    1
    18     4     5   ar
    19     5     6   ar
    20     6     7   ar
    21     7     8    1
    22     7     9   ar
    23     9    10   ar
    24    10    11    1
    25    19    14   ar
    26    26    22   ar
    27    10     4   ar
    28     2     3    1
