@<TRIPOS>MOLECULE
*****
 25 27 0 0 0
SMALL
GASTEIGER

@<TRIPOS>ATOM
      1 C          63.3481   90.0253   12.5743 C.ar    1  UNL1        0.0576
      2 C          63.0595   89.4638   13.9350 C.ar    1  UNL1        0.0161
      3 C          63.6715   90.0932   15.1512 C.ar    1  UNL1        0.0609
      4 CL         63.3829   89.5317   16.5120 Cl      1  UNL1       -0.0821
      5 C          64.5720   91.2841   15.0068 C.ar    1  UNL1        0.0489
      6 C          64.8606   91.8456   13.6462 C.ar    1  UNL1        0.1464
      7 C          64.2486   91.2162   12.4300 C.ar    1  UNL1        0.0421
      8 N          62.1423   88.0211   11.4432 N.am    1  UNL1       -0.2658
      9 C          62.7361   89.3959   11.3580 C.2     1  UNL1        0.2507
     10 O          62.7179   90.1414   10.0565 O.2     1  UNL1       -0.2698
     11 H          62.1542   87.5319   12.2974 H       1  UNL1        0.1566
     12 C          62.5432   84.9055    7.3041 C.3     1  UNL1        0.0521
     13 C          61.7308   85.8339    8.1573 C.ar    1  UNL1        0.0608
     14 C          60.3065   86.1330    7.7943 C.ar    1  UNL1        0.0148
     15 C          59.4941   87.0614    8.6475 C.ar    1  UNL1        0.0041
     16 C          60.1060   87.6908    9.8638 C.ar    1  UNL1        0.0345
     17 C          61.5303   87.3918   10.2269 C.ar    1  UNL1        0.1340
     18 N          62.3427   86.4633    9.3736 N.ar    1  UNL1       -0.2348
     19 O          65.7611   93.0365   13.5018 O.3     1  UNL1       -0.4503
     20 C          66.4070   93.3326   12.1808 C.ar    1  UNL1        0.1835
     21 C          67.3085   92.3177   11.5425 C.ar    1  UNL1        0.1396
     22 N          67.9544   92.6137   10.2215 N.ar    1  UNL1       -0.2192
     23 C          67.6989   93.9247    9.5387 C.ar    1  UNL1        0.1991
     24 N          66.7975   94.9395   10.1770 N.ar    1  UNL1       -0.2192
     25 C          66.1515   94.6435   11.4980 C.ar    1  UNL1        0.1396
@<TRIPOS>BOND
     1    12    13    1
     2    13    14   ar
     3    14    15   ar
     4    15    16   ar
     5    16    17   ar
     6    17     8    1
     7     8     9   am
     8     9    10    2
     9     9     1    1
    10     1     2   ar
    11     2     3   ar
    12     3     4    1
    13     3     5   ar
    14     5     6   ar
    15     6    19    1
    16    19    20    1
    17    20    21   ar
    18    21    22   ar
    19    22    23   ar
    20    23    24   ar
    21    24    25   ar
    22     6     7   ar
    23    17    18   ar
    24    18    13   ar
    25     7     1   ar
    26    25    20   ar
    27     8    11    1
@<TRIPOS>MOLECULE
*****
 25 27 0 0 0
SMALL
GASTEIGER

@<TRIPOS>ATOM
      1 C          61.5919   88.0571   10.9110 C.ar    1  UNL1        0.0576
      2 C          60.2770   88.6516   11.3202 C.ar    1  UNL1        0.0161
      3 C          60.0991   90.1410   11.3340 C.ar    1  UNL1        0.0609
      4 CL         58.7841   90.7355   11.7431 Cl      1  UNL1       -0.0821
      5 C          61.2362   91.0358   10.9386 C.ar    1  UNL1        0.0489
      6 C          62.5511   90.4413   10.5294 C.ar    1  UNL1        0.1464
      7 C          62.7290   88.9520   10.5156 C.ar    1  UNL1        0.0421
      8 N          62.6360   85.9063   11.9278 N.am    1  UNL1       -0.2658
      9 C          61.7698   86.5677   10.8972 C.2     1  UNL1        0.2507
     10 O          61.0815   85.7398    9.8529 O.2     1  UNL1       -0.2698
     11 H          63.0878   86.4497   12.6133 H       1  UNL1        0.1566
     12 C          61.9294   81.2691   14.1631 C.3     1  UNL1        0.0521
     13 C          62.4606   82.0983   13.0317 C.ar    1  UNL1        0.0608
     14 C          63.1697   81.4383   11.8866 C.ar    1  UNL1        0.0148
     15 C          63.7010   82.2676   10.7551 C.ar    1  UNL1        0.0041
     16 C          63.5231   83.7569   10.7689 C.ar    1  UNL1        0.0345
     17 C          62.8140   84.4169   11.9140 C.ar    1  UNL1        0.1340
     18 N          62.2828   83.5877   13.0455 N.ar    1  UNL1       -0.2348
     19 O          63.6882   91.3361   10.1340 O.3     1  UNL1       -0.4503
     20 C          64.5606   91.9506   11.1881 C.ar    1  UNL1        0.1835
     21 C          65.6053   92.9564   10.8045 C.ar    1  UNL1        0.1396
     22 N          66.4777   93.5708   11.8587 N.ar    1  UNL1       -0.2192
     23 C          66.3055   93.1795   13.2965 C.ar    1  UNL1        0.1991
     24 N          65.2609   92.1738   13.6801 N.ar    1  UNL1       -0.2192
     25 C          64.3884   91.5593   12.6259 C.ar    1  UNL1        0.1396
@<TRIPOS>BOND
     1    12    13    1
     2    13    14   ar
     3    14    15   ar
     4    15    16   ar
     5    16    17   ar
     6    17     8    1
     7     8     9   am
     8     9    10    2
     9     9     1    1
    10     1     2   ar
    11     2     3   ar
    12     3     4    1
    13     3     5   ar
    14     5     6   ar
    15     6    19    1
    16    19    20    1
    17    20    21   ar
    18    21    22   ar
    19    22    23   ar
    20    23    24   ar
    21    24    25   ar
    22     6     7   ar
    23    17    18   ar
    24    18    13   ar
    25     7     1   ar
    26    25    20   ar
    27     8    11    1
@<TRIPOS>MOLECULE
*****
 25 27 0 0 0
SMALL
GASTEIGER

@<TRIPOS>ATOM
      1 C          63.5635   88.4199   13.0683 C.ar    1  UNL1        0.0576
      2 C          63.0830   88.9397   11.7459 C.ar    1  UNL1        0.0161
      3 C          63.1246   90.4113   11.4584 C.ar    1  UNL1        0.0609
      4 CL         62.6441   90.9311   10.1359 Cl      1  UNL1       -0.0821
      5 C          63.6468   91.3631   12.4935 C.ar    1  UNL1        0.0489
      6 C          64.1273   90.8434   13.8159 C.ar    1  UNL1        0.1464
      7 C          64.0857   89.3718   14.1033 C.ar    1  UNL1        0.0421
      8 N          62.7474   86.0302   12.4573 N.am    1  UNL1       -0.2658
      9 C          63.5218   86.9483   13.3558 C.2     1  UNL1        0.2507
     10 O          64.2547   86.3948   14.5418 O.2     1  UNL1       -0.2698
     11 H          62.2664   86.3935   11.6789 H       1  UNL1        0.1566
     12 C          63.1765   81.1137   10.8314 C.3     1  UNL1        0.0521
     13 C          62.9203   82.1003   11.9318 C.ar    1  UNL1        0.0608
     14 C          62.6225   81.6154   13.3196 C.ar    1  UNL1        0.0148
     15 C          62.3663   82.6021   14.4200 C.ar    1  UNL1        0.0041
     16 C          62.4079   84.0736   14.1326 C.ar    1  UNL1        0.0345
     17 C          62.7058   84.5586   12.7448 C.ar    1  UNL1        0.1340
     18 N          62.9620   83.5719   11.6444 N.ar    1  UNL1       -0.2348
     19 O          64.6495   91.7953   14.8509 O.3     1  UNL1       -0.4503
     20 C          66.1108   92.1314   14.8915 C.ar    1  UNL1        0.1835
     21 C          66.7117   92.7159   16.1354 C.ar    1  UNL1        0.1396
     22 N          68.1730   93.0520   16.1760 N.ar    1  UNL1       -0.2192
     23 C          69.0334   92.8037   14.9727 C.ar    1  UNL1        0.1991
     24 N          68.4326   92.2192   13.7288 N.ar    1  UNL1       -0.2192
     25 C          66.9712   91.8830   13.6882 C.ar    1  UNL1        0.1396
@<TRIPOS>BOND
     1    12    13    1
     2    13    14   ar
     3    14    15   ar
     4    15    16   ar
     5    16    17   ar
     6    17     8    1
     7     8     9   am
     8     9    10    2
     9     9     1    1
    10     1     2   ar
    11     2     3   ar
    12     3     4    1
    13     3     5   ar
    14     5     6   ar
    15     6    19    1
    16    19    20    1
    17    20    21   ar
    18    21    22   ar
    19    22    23   ar
    20    23    24   ar
    21    24    25   ar
    22     6     7   ar
    23    17    18   ar
    24    18    13   ar
    25     7     1   ar
    26    25    20   ar
    27     8    11    1
@<TRIPOS>MOLECULE
*****
 25 27 0 0 0
SMALL
GASTEIGER

@<TRIPOS>ATOM
      1 C          62.3852   89.6227   10.7080 C.ar    1  UNL1        0.0576
      2 C          61.5051   89.8483    9.5145 C.ar    1  UNL1        0.0161
      3 C          60.5696   88.7685    9.0577 C.ar    1  UNL1        0.0609
      4 CL         59.6894   88.9941    7.8641 Cl      1  UNL1       -0.0821
      5 C          60.5141   87.4631    9.7944 C.ar    1  UNL1        0.0489
      6 C          61.3941   87.2374   10.9879 C.ar    1  UNL1        0.1464
      7 C          62.3297   88.3172   11.4447 C.ar    1  UNL1        0.0421
      8 N          63.9381   90.6318   12.5301 N.am    1  UNL1       -0.2658
      9 C          63.3208   90.7025   11.1649 C.2     1  UNL1        0.2507
     10 O          63.6390   91.8530   10.2565 O.2     1  UNL1       -0.2698
     11 H          63.7293   89.8767   13.1263 H       1  UNL1        0.1566
     12 C          66.8360   92.7928   16.2628 C.3     1  UNL1        0.0521
     13 C          66.3227   92.7921   14.8533 C.ar    1  UNL1        0.0608
     14 C          66.7449   93.8711   13.9008 C.ar    1  UNL1        0.0148
     15 C          66.2316   93.8704   12.4914 C.ar    1  UNL1        0.0041
     16 C          65.2960   92.7907   12.0345 C.ar    1  UNL1        0.0345
     17 C          64.8738   91.7116   12.9870 C.ar    1  UNL1        0.1340
     18 N          65.3871   91.7123   14.3964 N.ar    1  UNL1       -0.2348
     19 O          61.3386   85.9320   11.7246 O.3     1  UNL1       -0.4503
     20 C          62.4336   84.9226   11.5455 C.ar    1  UNL1        0.1835
     21 C          63.1281   84.3486   12.7448 C.ar    1  UNL1        0.1396
     22 N          64.2230   83.3392   12.5657 N.ar    1  UNL1       -0.2192
     23 C          64.6236   82.9037   11.1873 C.ar    1  UNL1        0.1991
     24 N          63.9291   83.4776    9.9880 N.ar    1  UNL1       -0.2192
     25 C          62.8341   84.4871   10.1671 C.ar    1  UNL1        0.1396
@<TRIPOS>BOND
     1    12    13    1
     2    13    14   ar
     3    14    15   ar
     4    15    16   ar
     5    16    17   ar
     6    17     8    1
     7     8     9   am
     8     9    10    2
     9     9     1    1
    10     1     2   ar
    11     2     3   ar
    12     3     4    1
    13     3     5   ar
    14     5     6   ar
    15     6    19    1
    16    19    20    1
    17    20    21   ar
    18    21    22   ar
    19    22    23   ar
    20    23    24   ar
    21    24    25   ar
    22     6     7   ar
    23    17    18   ar
    24    18    13   ar
    25     7     1   ar
    26    25    20   ar
    27     8    11    1
@<TRIPOS>MOLECULE
*****
 25 27 0 0 0
SMALL
GASTEIGER

@<TRIPOS>ATOM
      1 C          62.9525   90.0402   12.0683 C.ar    1  UNL1        0.0576
      2 C          63.3197   89.0326   13.1170 C.ar    1  UNL1        0.0161
      3 C          64.3868   89.3510   14.1220 C.ar    1  UNL1        0.0609
      4 CL         64.7540   88.3433   15.1708 Cl      1  UNL1       -0.0821
      5 C          65.0867   90.6769   14.0781 C.ar    1  UNL1        0.0489
      6 C          64.7195   91.6845   13.0294 C.ar    1  UNL1        0.1464
      7 C          63.6525   91.3661   12.0245 C.ar    1  UNL1        0.0421
      8 N          62.0304   88.5268   10.1685 N.am    1  UNL1       -0.2658
      9 C          61.8854   89.7218   11.0633 C.2     1  UNL1        0.2507
     10 O          60.6733   90.5986   10.9532 O.2     1  UNL1       -0.2698
     11 H          62.8259   87.9514   10.2407 H       1  UNL1        0.1566
     12 C          58.9912   89.9893    6.2157 C.3     1  UNL1        0.0521
     13 C          59.4437   88.9398    7.1871 C.ar    1  UNL1        0.0608
     14 C          58.8291   87.5719    7.1535 C.ar    1  UNL1        0.0148
     15 C          59.2815   86.5223    8.1250 C.ar    1  UNL1        0.0041
     16 C          60.3486   86.8406    9.1299 C.ar    1  UNL1        0.0345
     17 C          60.9632   88.2085    9.1635 C.ar    1  UNL1        0.1340
     18 N          60.5108   89.2580    8.1920 N.ar    1  UNL1       -0.2348
     19 O          65.4195   93.0105   12.9856 O.3     1  UNL1       -0.4503
     20 C          66.2320   93.3903   11.7833 C.ar    1  UNL1        0.1835
     21 C          67.1810   92.3999   11.1761 C.ar    1  UNL1        0.1396
     22 N          67.9936   92.7797    9.9738 N.ar    1  UNL1       -0.2192
     23 C          67.8573   94.1498    9.3788 C.ar    1  UNL1        0.1991
     24 N          66.9084   95.1402    9.9860 N.ar    1  UNL1       -0.2192
     25 C          66.0957   94.7604   11.1883 C.ar    1  UNL1        0.1396
@<TRIPOS>BOND
     1    12    13    1
     2    13    14   ar
     3    14    15   ar
     4    15    16   ar
     5    16    17   ar
     6    17     8    1
     7     8     9   am
     8     9    10    2
     9     9     1    1
    10     1     2   ar
    11     2     3   ar
    12     3     4    1
    13     3     5   ar
    14     5     6   ar
    15     6    19    1
    16    19    20    1
    17    20    21   ar
    18    21    22   ar
    19    22    23   ar
    20    23    24   ar
    21    24    25   ar
    22     6     7   ar
    23    17    18   ar
    24    18    13   ar
    25     7     1   ar
    26    25    20   ar
    27     8    11    1
@<TRIPOS>MOLECULE
*****
 25 27 0 0 0
SMALL
GASTEIGER

@<TRIPOS>ATOM
      1 C          62.6611   87.9348   11.6886 C.ar    1  UNL1        0.0576
      2 C          61.8201   88.2772   10.4947 C.ar    1  UNL1        0.0161
      3 C          61.5500   89.7129   10.1545 C.ar    1  UNL1        0.0609
      4 CL         60.7091   90.0554    8.9605 Cl      1  UNL1       -0.0821
      5 C          62.1209   90.8062   11.0083 C.ar    1  UNL1        0.0489
      6 C          62.9618   90.4637   12.2023 C.ar    1  UNL1        0.1464
      7 C          63.2319   89.0280   12.5424 C.ar    1  UNL1        0.0421
      8 N          62.5748   85.4171   11.0529 N.am    1  UNL1       -0.2658
      9 C          62.9312   86.4990   12.0288 C.2     1  UNL1        0.2507
     10 O          63.5577   86.1452   13.3450 O.2     1  UNL1       -0.2698
     11 H          62.1636   85.6493   10.1891 H       1  UNL1        0.1566
     12 C          61.8902   81.3296   14.1871 C.3     1  UNL1        0.0521
     13 C          62.5026   81.9376   12.9602 C.ar    1  UNL1        0.0608
     14 C          63.3851   81.1100   12.0736 C.ar    1  UNL1        0.0148
     15 C          63.9975   81.7180   10.8467 C.ar    1  UNL1        0.0041
     16 C          63.7274   83.1537   10.5065 C.ar    1  UNL1        0.0345
     17 C          62.8449   83.9813   11.3931 C.ar    1  UNL1        0.1340
     18 N          62.2325   83.3733   12.6200 N.ar    1  UNL1       -0.2348
     19 O          63.5326   91.5570   13.0560 O.3     1  UNL1       -0.4503
     20 C          65.0185   91.6851   13.2163 C.ar    1  UNL1        0.1835
     21 C          65.6869   91.1658   14.4547 C.ar    1  UNL1        0.1396
     22 N          67.1727   91.2939   14.6149 N.ar    1  UNL1       -0.2192
     23 C          67.9903   91.9412   13.5367 C.ar    1  UNL1        0.1991
     24 N          67.3220   92.4605   12.2983 N.ar    1  UNL1       -0.2192
     25 C          65.8361   92.3324   12.1381 C.ar    1  UNL1        0.1396
@<TRIPOS>BOND
     1    12    13    1
     2    13    14   ar
     3    14    15   ar
     4    15    16   ar
     5    16    17   ar
     6    17     8    1
     7     8     9   am
     8     9    10    2
     9     9     1    1
    10     1     2   ar
    11     2     3   ar
    12     3     4    1
    13     3     5   ar
    14     5     6   ar
    15     6    19    1
    16    19    20    1
    17    20    21   ar
    18    21    22   ar
    19    22    23   ar
    20    23    24   ar
    21    24    25   ar
    22     6     7   ar
    23    17    18   ar
    24    18    13   ar
    25     7     1   ar
    26    25    20   ar
    27     8    11    1
@<TRIPOS>MOLECULE
*****
 25 27 0 0 0
SMALL
GASTEIGER

@<TRIPOS>ATOM
      1 C          63.3097   89.9960   12.0478 C.ar    1  UNL1        0.0576
      2 C          64.1338   91.2249   11.8022 C.ar    1  UNL1        0.0161
      3 C          64.8983   91.8529   12.9296 C.ar    1  UNL1        0.0609
      4 CL         65.7225   93.0820   12.6841 Cl      1  UNL1       -0.0821
      5 C          64.8386   91.2519   14.3027 C.ar    1  UNL1        0.0489
      6 C          64.0145   90.0229   14.5483 C.ar    1  UNL1        0.1464
      7 C          63.2500   89.3950   13.4208 C.ar    1  UNL1        0.0421
      8 N          62.2550   87.8964   10.9390 N.am    1  UNL1       -0.2658
      9 C          62.5452   89.3679   10.9203 C.2     1  UNL1        0.2507
     10 O          62.0710   90.2114    9.7742 O.2     1  UNL1       -0.2698
     11 H          62.5662   87.3428   11.6912 H       1  UNL1        0.1566
     12 C          62.1196   84.7983    6.7696 C.3     1  UNL1        0.0521
     13 C          61.4228   85.7193    7.7268 C.ar    1  UNL1        0.0608
     14 C          59.9616   86.0122    7.5566 C.ar    1  UNL1        0.0148
     15 C          59.2648   86.9332    8.5138 C.ar    1  UNL1        0.0041
     16 C          60.0292   87.5613    9.6413 C.ar    1  UNL1        0.0345
     17 C          61.4904   87.2683    9.8115 C.ar    1  UNL1        0.1340
     18 N          62.1872   86.3473    8.8543 N.ar    1  UNL1       -0.2348
     19 O          63.9548   89.4220   15.9213 O.3     1  UNL1       -0.4503
     20 C          63.5122   87.9998   16.0990 C.ar    1  UNL1        0.1835
     21 C          62.5222   87.6507   17.1705 C.ar    1  UNL1        0.1396
     22 N          62.0796   86.2286   17.3482 N.ar    1  UNL1       -0.2192
     23 C          62.6269   85.1555   16.4543 C.ar    1  UNL1        0.1991
     24 N          63.6168   85.5046   15.3827 N.ar    1  UNL1       -0.2192
     25 C          64.0595   86.9268   15.2051 C.ar    1  UNL1        0.1396
@<TRIPOS>BOND
     1    12    13    1
     2    13    14   ar
     3    14    15   ar
     4    15    16   ar
     5    16    17   ar
     6    17     8    1
     7     8     9   am
     8     9    10    2
     9     9     1    1
    10     1     2   ar
    11     2     3   ar
    12     3     4    1
    13     3     5   ar
    14     5     6   ar
    15     6    19    1
    16    19    20    1
    17    20    21   ar
    18    21    22   ar
    19    22    23   ar
    20    23    24   ar
    21    24    25   ar
    22     6     7   ar
    23    17    18   ar
    24    18    13   ar
    25     7     1   ar
    26    25    20   ar
    27     8    11    1
@<TRIPOS>MOLECULE
*****
 25 27 0 0 0
SMALL
GASTEIGER

@<TRIPOS>ATOM
      1 C          63.1384   89.8352   12.3844 C.ar    1  UNL1        0.0576
      2 C          62.9168   89.2178   13.7333 C.ar    1  UNL1        0.0161
      3 C          63.5632   89.8162   14.9474 C.ar    1  UNL1        0.0609
      4 CL         63.3416   89.1988   16.2964 Cl      1  UNL1       -0.0821
      5 C          64.4313   91.0321   14.8125 C.ar    1  UNL1        0.0489
      6 C          64.6529   91.6495   13.4636 C.ar    1  UNL1        0.1464
      7 C          64.0064   91.0511   12.2495 C.ar    1  UNL1        0.0421
      8 N          62.0679   87.7980   11.1786 N.am    1  UNL1       -0.2658
      9 C          62.4919   89.2368   11.1703 C.2     1  UNL1        0.2507
     10 O          62.2694   90.0772    9.9479 O.2     1  UNL1       -0.2698
     11 H          62.2139   87.2464   11.9809 H       1  UNL1        0.1566
     12 C          62.3529   84.7967    6.9465 C.3     1  UNL1        0.0521
     13 C          61.5640   85.6989    7.8484 C.ar    1  UNL1        0.0608
     14 C          60.1286   86.0028    7.5363 C.ar    1  UNL1        0.0148
     15 C          59.3397   86.9050    8.4383 C.ar    1  UNL1        0.0041
     16 C          59.9861   87.5034    9.6523 C.ar    1  UNL1        0.0345
     17 C          61.4214   87.1996    9.9644 C.ar    1  UNL1        0.1340
     18 N          62.2104   86.2973    9.0625 N.ar    1  UNL1       -0.2348
     19 O          65.5209   92.8653   13.3287 O.3     1  UNL1       -0.4503
     20 C          66.8667   92.9032   13.9901 C.ar    1  UNL1        0.1835
     21 C          68.0079   92.1185   13.4140 C.ar    1  UNL1        0.1396
     22 N          69.3536   92.1564   14.0754 N.ar    1  UNL1       -0.2192
     23 C          69.5582   92.9789   15.3130 C.ar    1  UNL1        0.1991
     24 N          68.4171   93.7636   15.8891 N.ar    1  UNL1       -0.2192
     25 C          67.0712   93.7258   15.2276 C.ar    1  UNL1        0.1396
@<TRIPOS>BOND
     1    12    13    1
     2    13    14   ar
     3    14    15   ar
     4    15    16   ar
     5    16    17   ar
     6    17     8    1
     7     8     9   am
     8     9    10    2
     9     9     1    1
    10     1     2   ar
    11     2     3   ar
    12     3     4    1
    13     3     5   ar
    14     5     6   ar
    15     6    19    1
    16    19    20    1
    17    20    21   ar
    18    21    22   ar
    19    22    23   ar
    20    23    24   ar
    21    24    25   ar
    22     6     7   ar
    23    17    18   ar
    24    18    13   ar
    25     7     1   ar
    26    25    20   ar
    27     8    11    1
@<TRIPOS>MOLECULE
*****
 25 27 0 0 0
SMALL
GASTEIGER

@<TRIPOS>ATOM
      1 C          63.4564   89.5424   12.9561 C.ar    1  UNL1        0.0576
      2 C          63.2750   89.3575   14.4335 C.ar    1  UNL1        0.0161
      3 C          63.7739   90.4026   15.3869 C.ar    1  UNL1        0.0609
      4 CL         63.5925   90.2177   16.8645 Cl      1  UNL1       -0.0821
      5 C          64.4541   91.6325   14.8629 C.ar    1  UNL1        0.0489
      6 C          64.6355   91.8174   13.3855 C.ar    1  UNL1        0.1464
      7 C          64.1367   90.7723   12.4321 C.ar    1  UNL1        0.0421
      8 N          62.4689   88.8958   10.6416 N.am    1  UNL1       -0.2658
      9 C          62.9576   88.4973   12.0026 C.2     1  UNL1        0.2507
     10 O          62.9475   87.0538   12.4102 O.2     1  UNL1       -0.2698
     11 H          62.4756   89.8433   10.3741 H       1  UNL1        0.1566
     12 C          58.6559   86.9348    7.7065 C.3     1  UNL1        0.0521
     13 C          60.0636   86.8703    8.2206 C.ar    1  UNL1        0.0608
     14 C          60.9724   85.7608    7.7812 C.ar    1  UNL1        0.0148
     15 C          62.3800   85.6963    8.2953 C.ar    1  UNL1        0.0041
     16 C          62.8789   86.7413    9.2488 C.ar    1  UNL1        0.0345
     17 C          61.9701   87.8508    9.6881 C.ar    1  UNL1        0.1340
     18 N          60.5624   87.9153    9.1740 N.ar    1  UNL1       -0.2348
     19 O          65.3157   93.0473   12.8614 O.3     1  UNL1       -0.4503
     20 C          66.3227   92.9338   11.7556 C.ar    1  UNL1        0.1835
     21 C          66.0998   93.6582   10.4610 C.ar    1  UNL1        0.1396
     22 N          67.1068   93.5447    9.3551 N.ar    1  UNL1       -0.2192
     23 C          68.3367   92.7070    9.5437 C.ar    1  UNL1        0.1991
     24 N          68.5596   91.9827   10.8381 N.ar    1  UNL1       -0.2192
     25 C          67.5526   92.0961   11.9441 C.ar    1  UNL1        0.1396
@<TRIPOS>BOND
     1    12    13    1
     2    13    14   ar
     3    14    15   ar
     4    15    16   ar
     5    16    17   ar
     6    17     8    1
     7     8     9   am
     8     9    10    2
     9     9     1    1
    10     1     2   ar
    11     2     3   ar
    12     3     4    1
    13     3     5   ar
    14     5     6   ar
    15     6    19    1
    16    19    20    1
    17    20    21   ar
    18    21    22   ar
    19    22    23   ar
    20    23    24   ar
    21    24    25   ar
    22     6     7   ar
    23    17    18   ar
    24    18    13   ar
    25     7     1   ar
    26    25    20   ar
    27     8    11    1
