@<TRIPOS>MOLECULE
*****
 34 37 0 0 0
SMALL
GASTEIGER

@<TRIPOS>ATOM
      1 C          63.0513   84.3771   13.4957 C.2     1  UNL1        0.2470
      2 O          64.2353   83.5053   13.7923 O.2     1  UNL1       -0.2701
      3 N          62.1580   84.8336   14.6108 N.am    1  UNL1       -0.3008
      4 H          61.3808   85.4059   14.4161 H       1  UNL1        0.1497
      5 C          64.4272   83.1362   10.8092 C.3     1  UNL1        0.0502
      6 C          63.3931   84.2220   10.8491 C.ar    1  UNL1        0.0418
      7 C          62.7606   84.7924   12.0839 C.ar    1  UNL1        0.0664
      8 C          61.7865   85.8509   11.6590 C.ar    1  UNL1        0.0228
      9 C          61.8168   85.9348   10.1617 C.ar    1  UNL1        0.0598
     10 N          62.8098   84.9280    9.6611 N.ar    1  UNL1       -0.3285
     11 C          63.1583   84.6723    8.2247 C.3     1  UNL1        0.1301
     12 C          60.9981   86.8625    9.3138 C.ar    1  UNL1        0.0158
     13 C          60.0685   86.3063    8.2762 C.ar    1  UNL1        0.0014
     14 C          59.2497   87.2340    7.4283 C.ar    1  UNL1        0.0000
     15 C          59.3605   88.7179    7.6180 C.ar    1  UNL1        0.0000
     16 C          60.2900   89.2740    8.6556 C.ar    1  UNL1        0.0000
     17 C          61.1088   88.3463    9.5035 C.ar    1  UNL1        0.0014
     18 C          62.4487   84.4184   16.0225 C.3     1  UNL1        0.0911
     19 C          63.1064   85.3804   16.9670 C.3     1  UNL1        0.0386
     20 C          62.5675   86.7723   17.1156 C.3     1  UNL1        0.0739
     21 N          63.2022   87.9063   16.3664 N.3     1  UNL1       -0.2697
     22 C          62.9568   89.3215   16.7988 C.3     1  UNL1        0.0938
     23 C          63.5915   90.4554   16.0496 C.3     1  UNL1        0.1081
     24 N          64.4717   90.1741   14.8680 N.pl3   1  UNL1       -0.3040
     25 C          64.7172   88.7589   14.4356 C.3     1  UNL1        0.1081
     26 C          64.0824   87.6251   15.1848 C.3     1  UNL1        0.0938
     27 C          65.1065   91.3081   14.1187 C.ar    1  UNL1        0.0594
     28 C          66.1491   92.1565   14.7845 C.ar    1  UNL1        0.0154
     29 C          66.7838   93.2904   14.0353 C.ar    1  UNL1        0.0022
     30 C          66.3759   93.5760   12.6203 C.ar    1  UNL1        0.0123
     31 C          65.3333   92.7276   11.9546 C.ar    1  UNL1        0.0694
     32 CL         64.9254   93.0131   10.5396 Cl      1  UNL1       -0.0813
     33 C          64.6986   91.5937   12.7038 C.ar    1  UNL1        0.0815
     34 CL         63.6559   90.7452   12.0381 Cl      1  UNL1       -0.0801
@<TRIPOS>BOND
     1     5     6    1
     2     6     7   ar
     3     7     1    1
     4     1     2    2
     5     1     3   am
     6     3    18    1
     7    18    19    1
     8    19    20    1
     9    20    21    1
    10    21    22    1
    11    22    23    1
    12    23    24    1
    13    24    27    1
    14    27    28   ar
    15    28    29   ar
    16    29    30   ar
    17    30    31   ar
    18    31    32    1
    19    31    33   ar
    20    33    34    1
    21    24    25    1
    22    25    26    1
    23     7     8   ar
    24     8     9   ar
    25     9    12    1
    26    12    13   ar
    27    13    14   ar
    28    14    15   ar
    29    15    16   ar
    30    16    17   ar
    31     9    10   ar
    32    10    11    1
    33    10     6   ar
    34    26    21    1
    35    17    12   ar
    36    33    27   ar
    37     3     4    1
@<TRIPOS>MOLECULE
*****
 34 37 0 0 0
SMALL
GASTEIGER

@<TRIPOS>ATOM
      1 C          63.7489   86.3460   14.4072 C.2     1  UNL1        0.2470
      2 O          63.8293   85.5878   15.6989 O.2     1  UNL1       -0.2701
      3 N          63.9146   87.8368   14.4010 N.am    1  UNL1       -0.3008
      4 H          63.8618   88.3345   13.5532 H       1  UNL1        0.1497
      5 C          64.5533   83.2458   13.7815 C.3     1  UNL1        0.0502
      6 C          63.8724   84.1885   12.8340 C.ar    1  UNL1        0.0418
      7 C          63.5027   85.6134   13.1216 C.ar    1  UNL1        0.0664
      8 C          62.8435   86.1772   11.8978 C.ar    1  UNL1        0.0228
      9 C          62.8058   85.1007   10.8539 C.ar    1  UNL1        0.0598
     10 N          63.4417   83.8716   11.4326 N.ar    1  UNL1       -0.3285
     11 C          63.6163   82.5564   10.7326 C.3     1  UNL1        0.1301
     12 C          62.2328   85.2306    9.4738 C.ar    1  UNL1        0.0158
     13 C          62.9887   84.6941    8.2944 C.ar    1  UNL1        0.0014
     14 C          62.4157   84.8239    6.9143 C.ar    1  UNL1        0.0000
     15 C          61.0869   85.4902    6.7135 C.ar    1  UNL1        0.0000
     16 C          60.3310   86.0267    7.8928 C.ar    1  UNL1        0.0000
     17 C          60.9040   85.8969    9.2730 C.ar    1  UNL1        0.0014
     18 C          64.1608   88.5693   15.6866 C.3     1  UNL1        0.0911
     19 C          63.3376   89.7746   16.0326 C.3     1  UNL1        0.0386
     20 C          63.9504   91.1426   15.9768 C.3     1  UNL1        0.0739
     21 N          64.6856   91.5854   14.7465 N.3     1  UNL1       -0.2697
     22 C          66.0600   92.1744   14.8654 C.3     1  UNL1        0.0938
     23 C          66.7952   92.6172   13.6353 C.3     1  UNL1        0.1081
     24 N          66.1559   92.4711   12.2862 N.pl3   1  UNL1       -0.3040
     25 C          64.7816   91.8822   12.1673 C.3     1  UNL1        0.1081
     26 C          64.0464   91.4394   13.3975 C.3     1  UNL1        0.0938
     27 C          66.8912   92.9140   11.0559 C.ar    1  UNL1        0.0594
     28 C          67.7659   91.9460   10.3158 C.ar    1  UNL1        0.0154
     29 C          68.5011   92.3889    9.0855 C.ar    1  UNL1        0.0022
     30 C          68.3616   93.7997    8.5956 C.ar    1  UNL1        0.0123
     31 C          67.4868   94.7677    9.3358 C.ar    1  UNL1        0.0694
     32 CL         67.3473   96.1786    8.8459 Cl      1  UNL1       -0.0813
     33 C          66.7516   94.3248   10.5660 C.ar    1  UNL1        0.0815
     34 CL         65.8769   95.2928   11.3062 Cl      1  UNL1       -0.0801
@<TRIPOS>BOND
     1     5     6    1
     2     6     7   ar
     3     7     1    1
     4     1     2    2
     5     1     3   am
     6     3    18    1
     7    18    19    1
     8    19    20    1
     9    20    21    1
    10    21    22    1
    11    22    23    1
    12    23    24    1
    13    24    27    1
    14    27    28   ar
    15    28    29   ar
    16    29    30   ar
    17    30    31   ar
    18    31    32    1
    19    31    33   ar
    20    33    34    1
    21    24    25    1
    22    25    26    1
    23     7     8   ar
    24     8     9   ar
    25     9    12    1
    26    12    13   ar
    27    13    14   ar
    28    14    15   ar
    29    15    16   ar
    30    16    17   ar
    31     9    10   ar
    32    10    11    1
    33    10     6   ar
    34    26    21    1
    35    17    12   ar
    36    33    27   ar
    37     3     4    1
@<TRIPOS>MOLECULE
*****
 34 37 0 0 0
SMALL
GASTEIGER

@<TRIPOS>ATOM
      1 C          63.8099   90.7864   15.3081 C.2     1  UNL1        0.2470
      2 O          63.8719   91.8254   16.3883 O.2     1  UNL1       -0.2701
      3 N          63.4686   89.3668   15.6516 N.am    1  UNL1       -0.3008
      4 H          63.4279   88.6849   14.9427 H       1  UNL1        0.1497
      5 C          62.0557   89.8953   12.7046 C.3     1  UNL1        0.0502
      6 C          63.2829   90.7576   12.6877 C.ar    1  UNL1        0.0418
      7 C          64.0892   91.1672   13.8843 C.ar    1  UNL1        0.0664
      8 C          65.2239   92.0245   13.4073 C.ar    1  UNL1        0.0228
      9 C          65.1189   92.1447   11.9158 C.ar    1  UNL1        0.0598
     10 N          63.9192   91.3617   11.4711 N.ar    1  UNL1       -0.3285
     11 C          63.4401   91.2095   10.0578 C.3     1  UNL1        0.1301
     12 C          66.0500   92.9130   11.0255 C.ar    1  UNL1        0.0158
     13 C          67.2331   92.2280   10.4081 C.ar    1  UNL1        0.0014
     14 C          68.1642   92.9963    9.5177 C.ar    1  UNL1        0.0000
     15 C          67.9122   94.4495    9.2447 C.ar    1  UNL1        0.0000
     16 C          66.7291   95.1346    9.8621 C.ar    1  UNL1        0.0000
     17 C          65.7980   94.3663   10.7525 C.ar    1  UNL1        0.0014
     18 C          63.1893   88.9861   17.0754 C.3     1  UNL1        0.0911
     19 C          62.4286   87.7297   17.3804 C.3     1  UNL1        0.0386
     20 C          63.1459   86.4136   17.4365 C.3     1  UNL1        0.0739
     21 N          63.2181   85.5461   16.2149 N.3     1  UNL1       -0.2697
     22 C          62.0333   84.7198   15.8107 C.3     1  UNL1        0.0938
     23 C          62.1056   83.8523   14.5891 C.3     1  UNL1        0.1081
     24 N          63.3628   83.8111   13.7718 N.pl3   1  UNL1       -0.3040
     25 C          64.5476   84.6374   14.1761 C.3     1  UNL1        0.1081
     26 C          64.4752   85.5049   15.3976 C.3     1  UNL1        0.0938
     27 C          63.4350   82.9436   12.5502 C.ar    1  UNL1        0.0594
     28 C          63.9407   83.5103   11.2567 C.ar    1  UNL1        0.0154
     29 C          64.0130   82.6428   10.0351 C.ar    1  UNL1        0.0022
     30 C          63.5796   81.2086   10.1071 C.ar    1  UNL1        0.0123
     31 C          63.0739   80.6419   11.4006 C.ar    1  UNL1        0.0694
     32 CL         62.6405   79.2077   11.4726 Cl      1  UNL1       -0.0813
     33 C          63.0016   81.5094   12.6222 C.ar    1  UNL1        0.0815
     34 CL         62.4959   80.9427   13.9157 Cl      1  UNL1       -0.0801
@<TRIPOS>BOND
     1     5     6    1
     2     6     7   ar
     3     7     1    1
     4     1     2    2
     5     1     3   am
     6     3    18    1
     7    18    19    1
     8    19    20    1
     9    20    21    1
    10    21    22    1
    11    22    23    1
    12    23    24    1
    13    24    27    1
    14    27    28   ar
    15    28    29   ar
    16    29    30   ar
    17    30    31   ar
    18    31    32    1
    19    31    33   ar
    20    33    34    1
    21    24    25    1
    22    25    26    1
    23     7     8   ar
    24     8     9   ar
    25     9    12    1
    26    12    13   ar
    27    13    14   ar
    28    14    15   ar
    29    15    16   ar
    30    16    17   ar
    31     9    10   ar
    32    10    11    1
    33    10     6   ar
    34    26    21    1
    35    17    12   ar
    36    33    27   ar
    37     3     4    1
@<TRIPOS>MOLECULE
*****
 34 37 0 0 0
SMALL
GASTEIGER

@<TRIPOS>ATOM
      1 C          61.7125   90.1992   11.0102 C.2     1  UNL1        0.2470
      2 O          60.9140   89.6186   12.1395 O.2     1  UNL1       -0.2701
      3 N          61.2269   90.0580    9.5980 N.am    1  UNL1       -0.3008
      4 H          61.7510   90.4391    8.8568 H       1  UNL1        0.1497
      5 C          63.4000   90.0895   13.8013 C.3     1  UNL1        0.0502
      6 C          63.7723   90.8705   12.5760 C.ar    1  UNL1        0.0418
      7 C          62.9967   90.9210   11.2931 C.ar    1  UNL1        0.0664
      8 C          63.7307   91.8199   10.3427 C.ar    1  UNL1        0.0228
      9 C          64.9599   92.3251   11.0383 C.ar    1  UNL1        0.0598
     10 N          64.9856   91.7383   12.4185 N.ar    1  UNL1       -0.3285
     11 C          66.0397   91.9773   13.4587 C.3     1  UNL1        0.1301
     12 C          65.9837   93.2539   10.4558 C.ar    1  UNL1        0.0158
     13 C          65.7521   94.7357   10.4803 C.ar    1  UNL1        0.0014
     14 C          66.7758   95.6645    9.8979 C.ar    1  UNL1        0.0000
     15 C          68.0312   95.1115    9.2910 C.ar    1  UNL1        0.0000
     16 C          68.2628   93.6297    9.2665 C.ar    1  UNL1        0.0000
     17 C          67.2390   92.7009    9.8490 C.ar    1  UNL1        0.0014
     18 C          59.9428   89.3362    9.3152 C.3     1  UNL1        0.0911
     19 C          59.7722   88.5855    8.0277 C.3     1  UNL1        0.0386
     20 C          60.4086   87.2383    7.8551 C.3     1  UNL1        0.0739
     21 N          61.0938   86.5783    9.0149 N.3     1  UNL1       -0.2697
     22 C          60.5698   86.7752   10.4065 C.3     1  UNL1        0.0938
     23 C          61.2550   86.1152   11.5662 C.3     1  UNL1        0.1081
     24 N          62.4642   85.2584   11.3343 N.pl3   1  UNL1       -0.3040
     25 C          62.9882   85.0616    9.9427 C.3     1  UNL1        0.1081
     26 C          62.3030   85.7215    8.7830 C.3     1  UNL1        0.0938
     27 C          63.1494   84.5985   12.4941 C.ar    1  UNL1        0.0594
     28 C          63.8400   85.4335   13.5313 C.ar    1  UNL1        0.0154
     29 C          64.5252   84.7735   14.6910 C.ar    1  UNL1        0.0022
     30 C          64.5197   83.2785   14.8136 C.ar    1  UNL1        0.0123
     31 C          63.8291   82.4435   13.7763 C.ar    1  UNL1        0.0694
     32 CL         63.8236   80.9485   13.8988 Cl      1  UNL1       -0.0813
     33 C          63.1439   83.1035   12.6166 C.ar    1  UNL1        0.0815
     34 CL         62.4533   82.2685   11.5793 Cl      1  UNL1       -0.0801
@<TRIPOS>BOND
     1     5     6    1
     2     6     7   ar
     3     7     1    1
     4     1     2    2
     5     1     3   am
     6     3    18    1
     7    18    19    1
     8    19    20    1
     9    20    21    1
    10    21    22    1
    11    22    23    1
    12    23    24    1
    13    24    27    1
    14    27    28   ar
    15    28    29   ar
    16    29    30   ar
    17    30    31   ar
    18    31    32    1
    19    31    33   ar
    20    33    34    1
    21    24    25    1
    22    25    26    1
    23     7     8   ar
    24     8     9   ar
    25     9    12    1
    26    12    13   ar
    27    13    14   ar
    28    14    15   ar
    29    15    16   ar
    30    16    17   ar
    31     9    10   ar
    32    10    11    1
    33    10     6   ar
    34    26    21    1
    35    17    12   ar
    36    33    27   ar
    37     3     4    1
@<TRIPOS>MOLECULE
*****
 34 37 0 0 0
SMALL
GASTEIGER

@<TRIPOS>ATOM
      1 C          63.9485   89.9067   14.5498 C.2     1  UNL1        0.2470
      2 O          63.6733   88.7074   13.6919 O.2     1  UNL1       -0.2701
      3 N          63.3849   89.9811   15.9379 N.am    1  UNL1       -0.3008
      4 H          63.5656   90.7683   16.5009 H       1  UNL1        0.1497
      5 C          65.4436   92.1920   16.3364 C.3     1  UNL1        0.0502
      6 C          65.4746   92.0819   14.8408 C.ar    1  UNL1        0.0418
      7 C          64.7874   91.0315   14.0196 C.ar    1  UNL1        0.0664
      8 C          65.0864   91.3034   12.5750 C.ar    1  UNL1        0.0228
      9 C          65.9584   92.5218   12.5034 C.ar    1  UNL1        0.0598
     10 N          66.1983   93.0030   13.9038 N.ar    1  UNL1       -0.3285
     11 C          67.0180   94.1958   14.2979 C.3     1  UNL1        0.1301
     12 C          66.4960   93.1490   11.2514 C.ar    1  UNL1        0.0158
     13 C          67.4900   92.4069   10.4080 C.ar    1  UNL1        0.0014
     14 C          68.0276   93.0340    9.1560 C.ar    1  UNL1        0.0000
     15 C          67.5712   94.4032    8.7473 C.ar    1  UNL1        0.0000
     16 C          66.5772   95.1453    9.5907 C.ar    1  UNL1        0.0000
     17 C          66.0396   94.5182   10.8427 C.ar    1  UNL1        0.0014
     18 C          62.5461   88.8563   16.4680 C.3     1  UNL1        0.0911
     19 C          63.0423   88.0267   17.6150 C.3     1  UNL1        0.0386
     20 C          62.7387   86.5586   17.6653 C.3     1  UNL1        0.0739
     21 N          62.8911   85.7185   16.4320 N.3     1  UNL1       -0.2697
     22 C          61.7270   84.9259   15.9159 C.3     1  UNL1        0.0938
     23 C          61.8794   84.0858   14.6826 C.3     1  UNL1        0.1081
     24 N          63.1960   84.0384   13.9654 N.pl3   1  UNL1       -0.3040
     25 C          64.3602   84.8310   14.4816 C.3     1  UNL1        0.1081
     26 C          64.2077   85.6711   15.7148 C.3     1  UNL1        0.0938
     27 C          63.3484   83.1983   12.7321 C.ar    1  UNL1        0.0594
     28 C          63.9120   83.8006   11.4793 C.ar    1  UNL1        0.0154
     29 C          64.0644   82.9605   10.2459 C.ar    1  UNL1        0.0022
     30 C          63.6532   81.5181   10.2655 C.ar    1  UNL1        0.0123
     31 C          63.0897   80.9158   11.5184 C.ar    1  UNL1        0.0694
     32 CL         62.6786   79.4733   11.5380 Cl      1  UNL1       -0.0813
     33 C          62.9373   81.7559   12.7517 C.ar    1  UNL1        0.0815
     34 CL         62.3738   81.1536   14.0046 Cl      1  UNL1       -0.0801
@<TRIPOS>BOND
     1     5     6    1
     2     6     7   ar
     3     7     1    1
     4     1     2    2
     5     1     3   am
     6     3    18    1
     7    18    19    1
     8    19    20    1
     9    20    21    1
    10    21    22    1
    11    22    23    1
    12    23    24    1
    13    24    27    1
    14    27    28   ar
    15    28    29   ar
    16    29    30   ar
    17    30    31   ar
    18    31    32    1
    19    31    33   ar
    20    33    34    1
    21    24    25    1
    22    25    26    1
    23     7     8   ar
    24     8     9   ar
    25     9    12    1
    26    12    13   ar
    27    13    14   ar
    28    14    15   ar
    29    15    16   ar
    30    16    17   ar
    31     9    10   ar
    32    10    11    1
    33    10     6   ar
    34    26    21    1
    35    17    12   ar
    36    33    27   ar
    37     3     4    1
@<TRIPOS>MOLECULE
*****
 34 37 0 0 0
SMALL
GASTEIGER

@<TRIPOS>ATOM
      1 C          63.4465   90.1937   14.8678 C.2     1  UNL1        0.2470
      2 O          62.3190   89.7301   13.9939 O.2     1  UNL1       -0.2701
      3 N          63.5481   89.7059   16.2826 N.am    1  UNL1       -0.3008
      4 H          64.2882   90.0102   16.8563 H       1  UNL1        0.1497
      5 C          65.2815   92.2399   16.6273 C.3     1  UNL1        0.0502
      6 C          65.3158   92.0855   15.1356 C.ar    1  UNL1        0.0418
      7 C          64.4724   91.1450   14.3269 C.ar    1  UNL1        0.0664
      8 C          64.8350   91.3228   12.8823 C.ar    1  UNL1        0.0228
      9 C          65.9025   92.3732   12.7981 C.ar    1  UNL1        0.0598
     10 N          66.1997   92.8446   14.1908 N.ar    1  UNL1       -0.3285
     11 C          67.2043   93.8913   14.5718 C.3     1  UNL1        0.1301
     12 C          66.5577   92.8657   11.5419 C.ar    1  UNL1        0.0158
     13 C          66.1522   94.1837   10.9517 C.ar    1  UNL1        0.0014
     14 C          66.8074   94.6763    9.6955 C.ar    1  UNL1        0.0000
     15 C          67.8682   93.8508    9.0296 C.ar    1  UNL1        0.0000
     16 C          68.2738   92.5328    9.6199 C.ar    1  UNL1        0.0000
     17 C          67.6185   92.0403   10.8761 C.ar    1  UNL1        0.0014
     18 C          62.5223   88.7546   16.8235 C.3     1  UNL1        0.0911
     19 C          62.8841   87.8128   17.9336 C.3     1  UNL1        0.0386
     20 C          62.8605   86.3317   17.6981 C.3     1  UNL1        0.0739
     21 N          63.0359   85.7899   16.3103 N.3     1  UNL1       -0.2697
     22 C          62.1037   84.7344   15.7938 C.3     1  UNL1        0.0938
     23 C          62.2791   84.1928   14.4061 C.3     1  UNL1        0.1081
     24 N          63.3868   84.7066   13.5349 N.pl3   1  UNL1       -0.3040
     25 C          64.3190   85.7621   14.0514 C.3     1  UNL1        0.1081
     26 C          64.1436   86.3038   15.4391 C.3     1  UNL1        0.0938
     27 C          63.5622   84.1648   12.1471 C.ar    1  UNL1        0.0594
     28 C          64.2278   82.8369   11.9390 C.ar    1  UNL1        0.0154
     29 C          64.4032   82.2951   10.5512 C.ar    1  UNL1        0.0022
     30 C          63.9130   83.0814    9.3717 C.ar    1  UNL1        0.0123
     31 C          63.2473   84.4095    9.5799 C.ar    1  UNL1        0.0694
     32 CL         62.7570   85.1958    8.4003 Cl      1  UNL1       -0.0813
     33 C          63.0719   84.9512   10.9676 C.ar    1  UNL1        0.0815
     34 CL         62.4063   86.2792   11.1758 Cl      1  UNL1       -0.0801
@<TRIPOS>BOND
     1     5     6    1
     2     6     7   ar
     3     7     1    1
     4     1     2    2
     5     1     3   am
     6     3    18    1
     7    18    19    1
     8    19    20    1
     9    20    21    1
    10    21    22    1
    11    22    23    1
    12    23    24    1
    13    24    27    1
    14    27    28   ar
    15    28    29   ar
    16    29    30   ar
    17    30    31   ar
    18    31    32    1
    19    31    33   ar
    20    33    34    1
    21    24    25    1
    22    25    26    1
    23     7     8   ar
    24     8     9   ar
    25     9    12    1
    26    12    13   ar
    27    13    14   ar
    28    14    15   ar
    29    15    16   ar
    30    16    17   ar
    31     9    10   ar
    32    10    11    1
    33    10     6   ar
    34    26    21    1
    35    17    12   ar
    36    33    27   ar
    37     3     4    1
@<TRIPOS>MOLECULE
*****
 34 37 0 0 0
SMALL
GASTEIGER

@<TRIPOS>ATOM
      1 C          63.5471   90.1278   15.0312 C.2     1  UNL1        0.2470
      2 O          62.1738   90.0229   14.4370 O.2     1  UNL1       -0.2701
      3 N          63.9225   89.2757   16.2072 N.am    1  UNL1       -0.3008
      4 H          64.8239   89.3446   16.5972 H       1  UNL1        0.1497
      5 C          65.2983   92.3208   16.6966 C.3     1  UNL1        0.0502
      6 C          65.3498   92.0929   15.2150 C.ar    1  UNL1        0.0418
      7 C          64.5449   91.0849   14.4495 C.ar    1  UNL1        0.0664
      8 C          64.9129   91.2020   13.0000 C.ar    1  UNL1        0.0228
      9 C          65.9453   92.2824   12.8697 C.ar    1  UNL1        0.0598
     10 N          66.2153   92.8330   14.2386 N.ar    1  UNL1       -0.3285
     11 C          67.1813   93.9309   14.5726 C.3     1  UNL1        0.1301
     12 C          66.5938   92.7330   11.5944 C.ar    1  UNL1        0.0158
     13 C          66.0689   93.9377   10.8711 C.ar    1  UNL1        0.0014
     14 C          66.7174   94.3883    9.5958 C.ar    1  UNL1        0.0000
     15 C          67.8907   93.6342    9.0438 C.ar    1  UNL1        0.0000
     16 C          68.4156   92.4296    9.7672 C.ar    1  UNL1        0.0000
     17 C          67.7671   91.9789   11.0424 C.ar    1  UNL1        0.0014
     18 C          62.9247   88.3187   16.7889 C.3     1  UNL1        0.0911
     19 C          63.1551   86.8401   16.6854 C.3     1  UNL1        0.0386
     20 C          64.0871   86.2974   15.6429 C.3     1  UNL1        0.0739
     21 N          63.6235   86.1552   14.2234 N.3     1  UNL1       -0.2697
     22 C          63.5879   87.3539   13.3224 C.3     1  UNL1        0.0938
     23 C          63.1244   87.2117   11.9029 C.3     1  UNL1        0.1081
     24 N          62.6964   85.8707   11.3845 N.pl3   1  UNL1       -0.3040
     25 C          62.7320   84.6721   12.2855 C.3     1  UNL1        0.1081
     26 C          63.1955   84.8143   13.7049 C.3     1  UNL1        0.0938
     27 C          62.2329   85.7286    9.9649 C.ar    1  UNL1        0.0594
     28 C          63.0558   84.9502    8.9817 C.ar    1  UNL1        0.0154
     29 C          62.5922   84.8080    7.5621 C.ar    1  UNL1        0.0022
     30 C          61.3057   85.4442    7.1260 C.ar    1  UNL1        0.0123
     31 C          60.4828   86.2226    8.1094 C.ar    1  UNL1        0.0694
     32 CL         59.1964   86.8589    7.6732 Cl      1  UNL1       -0.0813
     33 C          60.9464   86.3648    9.5288 C.ar    1  UNL1        0.0815
     34 CL         60.1235   87.1432   10.5122 Cl      1  UNL1       -0.0801
@<TRIPOS>BOND
     1     5     6    1
     2     6     7   ar
     3     7     1    1
     4     1     2    2
     5     1     3   am
     6     3    18    1
     7    18    19    1
     8    19    20    1
     9    20    21    1
    10    21    22    1
    11    22    23    1
    12    23    24    1
    13    24    27    1
    14    27    28   ar
    15    28    29   ar
    16    29    30   ar
    17    30    31   ar
    18    31    32    1
    19    31    33   ar
    20    33    34    1
    21    24    25    1
    22    25    26    1
    23     7     8   ar
    24     8     9   ar
    25     9    12    1
    26    12    13   ar
    27    13    14   ar
    28    14    15   ar
    29    15    16   ar
    30    16    17   ar
    31     9    10   ar
    32    10    11    1
    33    10     6   ar
    34    26    21    1
    35    17    12   ar
    36    33    27   ar
    37     3     4    1
@<TRIPOS>MOLECULE
*****
 34 37 0 0 0
SMALL
GASTEIGER

@<TRIPOS>ATOM
      1 C          63.6940   84.8421   15.0988 C.2     1  UNL1        0.2470
      2 O          62.7576   84.0567   15.9684 O.2     1  UNL1       -0.2701
      3 N          64.5671   84.1340   14.1057 N.am    1  UNL1       -0.3008
      4 H          65.1817   84.6495   13.5350 H       1  UNL1        0.1497
      5 C          62.6751   86.6007   17.6520 C.3     1  UNL1        0.0502
      6 C          63.2891   87.1440   16.3959 C.ar    1  UNL1        0.0418
      7 C          63.7574   86.3357   15.2223 C.ar    1  UNL1        0.0664
      8 C          64.3003   87.2832   14.1939 C.ar    1  UNL1        0.0228
      9 C          64.1674   88.6771   14.7319 C.ar    1  UNL1        0.0598
     10 N          63.5424   88.5911   16.0928 N.ar    1  UNL1       -0.3285
     11 C          63.2264   89.7489   16.9926 C.3     1  UNL1        0.1301
     12 C          64.5860   89.9360   14.0319 C.ar    1  UNL1        0.0158
     13 C          63.8347   90.4066   12.8219 C.ar    1  UNL1        0.0014
     14 C          64.2533   91.6655   12.1219 C.ar    1  UNL1        0.0000
     15 C          65.4232   92.4537   12.6319 C.ar    1  UNL1        0.0000
     16 C          66.1746   91.9830   13.8419 C.ar    1  UNL1        0.0000
     17 C          65.7560   90.7242   14.5418 C.ar    1  UNL1        0.0014
     18 C          64.5037   82.6405   13.9822 C.3     1  UNL1        0.0911
     19 C          64.7996   81.9834   12.6666 C.3     1  UNL1        0.0386
     20 C          63.7863   82.0278   11.5615 C.3     1  UNL1        0.0739
     21 N          63.2353   83.3450   11.1016 N.3     1  UNL1       -0.2697
     22 C          62.3628   84.1532   12.0156 C.3     1  UNL1        0.0938
     23 C          61.8118   85.4703   11.5557 C.3     1  UNL1        0.1081
     24 N          62.1333   85.9792   10.1818 N.pl3   1  UNL1       -0.3040
     25 C          63.0058   85.1711    9.2678 C.3     1  UNL1        0.1081
     26 C          63.5568   83.8539    9.7277 C.3     1  UNL1        0.0938
     27 C          61.5822   87.2964    9.7219 C.ar    1  UNL1        0.0594
     28 C          62.0672   88.5713   10.3460 C.ar    1  UNL1        0.0154
     29 C          61.5162   89.8885    9.8861 C.ar    1  UNL1        0.0022
     30 C          60.4801   89.9308    8.8022 C.ar    1  UNL1        0.0123
     31 C          59.9952   88.6558    8.1781 C.ar    1  UNL1        0.0694
     32 CL         58.9591   88.6980    7.0942 Cl      1  UNL1       -0.0813
     33 C          60.5462   87.3387    8.6380 C.ar    1  UNL1        0.0815
     34 CL         60.0612   86.0637    8.0140 Cl      1  UNL1       -0.0801
@<TRIPOS>BOND
     1     5     6    1
     2     6     7   ar
     3     7     1    1
     4     1     2    2
     5     1     3   am
     6     3    18    1
     7    18    19    1
     8    19    20    1
     9    20    21    1
    10    21    22    1
    11    22    23    1
    12    23    24    1
    13    24    27    1
    14    27    28   ar
    15    28    29   ar
    16    29    30   ar
    17    30    31   ar
    18    31    32    1
    19    31    33   ar
    20    33    34    1
    21    24    25    1
    22    25    26    1
    23     7     8   ar
    24     8     9   ar
    25     9    12    1
    26    12    13   ar
    27    13    14   ar
    28    14    15   ar
    29    15    16   ar
    30    16    17   ar
    31     9    10   ar
    32    10    11    1
    33    10     6   ar
    34    26    21    1
    35    17    12   ar
    36    33    27   ar
    37     3     4    1
@<TRIPOS>MOLECULE
*****
 34 37 0 0 0
SMALL
GASTEIGER

@<TRIPOS>ATOM
      1 C          63.8352   89.4117   14.2974 C.2     1  UNL1        0.2470
      2 O          65.2267   89.8629   14.6293 O.2     1  UNL1       -0.2701
      3 N          62.9370   88.8918   15.3805 N.am    1  UNL1       -0.3008
      4 H          62.0237   88.5957   15.1627 H       1  UNL1        0.1497
      5 C          64.2501   91.9109   12.2403 C.3     1  UNL1        0.0502
      6 C          63.5326   90.6291   11.9370 C.ar    1  UNL1        0.0418
      7 C          63.3419   89.4803   12.8825 C.ar    1  UNL1        0.0664
      8 C          62.5712   88.4122   12.1647 C.ar    1  UNL1        0.0228
      9 C          62.2856   88.9008   10.7755 C.ar    1  UNL1        0.0598
     10 N          62.8799   90.2709   10.6348 N.ar    1  UNL1       -0.3285
     11 C          62.8300   91.1318    9.4074 C.3     1  UNL1        0.1301
     12 C          61.5373   88.1510    9.7136 C.ar    1  UNL1        0.0158
     13 C          60.3747   88.7954    9.0185 C.ar    1  UNL1        0.0014
     14 C          59.6264   88.0456    7.9566 C.ar    1  UNL1        0.0000
     15 C          60.0406   86.6514    7.5897 C.ar    1  UNL1        0.0000
     16 C          61.2032   86.0069    8.2848 C.ar    1  UNL1        0.0000
     17 C          61.9515   86.7568    9.3467 C.ar    1  UNL1        0.0014
     18 C          63.4303   88.8232   16.7953 C.3     1  UNL1        0.0911
     19 C          62.7256   87.9537   17.7940 C.3     1  UNL1        0.0386
     20 C          63.0119   86.4820   17.8412 C.3     1  UNL1        0.0739
     21 N          63.1093   85.6957   16.5674 N.3     1  UNL1       -0.2697
     22 C          64.4039   85.6501   15.8113 C.3     1  UNL1        0.0938
     23 C          64.5013   84.8638   14.5377 C.3     1  UNL1        0.1081
     24 N          63.3040   84.1231   14.0202 N.pl3   1  UNL1       -0.3040
     25 C          62.0093   84.1687   14.7763 C.3     1  UNL1        0.1081
     26 C          61.9120   84.9550   16.0499 C.3     1  UNL1        0.0938
     27 C          63.4013   83.3368   12.7464 C.ar    1  UNL1        0.0594
     28 C          63.8852   83.9997   11.4909 C.ar    1  UNL1        0.0154
     29 C          63.9826   83.2134   10.2172 C.ar    1  UNL1        0.0022
     30 C          63.5961   81.7641   10.1991 C.ar    1  UNL1        0.0123
     31 C          63.1122   81.1012   11.4547 C.ar    1  UNL1        0.0694
     32 CL         62.7257   79.6520   11.4366 Cl      1  UNL1       -0.0813
     33 C          63.0148   81.8876   12.7283 C.ar    1  UNL1        0.0815
     34 CL         62.5309   81.2246   13.9839 Cl      1  UNL1       -0.0801
@<TRIPOS>BOND
     1     5     6    1
     2     6     7   ar
     3     7     1    1
     4     1     2    2
     5     1     3   am
     6     3    18    1
     7    18    19    1
     8    19    20    1
     9    20    21    1
    10    21    22    1
    11    22    23    1
    12    23    24    1
    13    24    27    1
    14    27    28   ar
    15    28    29   ar
    16    29    30   ar
    17    30    31   ar
    18    31    32    1
    19    31    33   ar
    20    33    34    1
    21    24    25    1
    22    25    26    1
    23     7     8   ar
    24     8     9   ar
    25     9    12    1
    26    12    13   ar
    27    13    14   ar
    28    14    15   ar
    29    15    16   ar
    30    16    17   ar
    31     9    10   ar
    32    10    11    1
    33    10     6   ar
    34    26    21    1
    35    17    12   ar
    36    33    27   ar
    37     3     4    1
