@<TRIPOS>MOLECULE
*****
 27 31 0 0 0
SMALL
GASTEIGER

@<TRIPOS>ATOM
      1 C          64.1739   89.5144   14.1340 C.ar    1  UNL1        0.0534
      2 C          63.4734   89.6422   12.8138 C.ar    1  UNL1        0.0045
      3 C          63.7751   90.8038   11.9141 C.ar    1  UNL1        0.0001
      4 C          64.7771   91.8378   12.3346 C.ar    1  UNL1       -0.0002
      5 C          65.0787   92.9995   11.4349 C.ar    1  UNL1       -0.0017
      6 C          66.0808   94.0334   11.8554 C.ar    1  UNL1        0.0071
      7 C          66.7813   93.9056   13.1757 C.ar    1  UNL1       -0.0017
      8 C          66.4796   92.7439   14.0754 C.ar    1  UNL1       -0.0002
      9 C          65.4776   91.7100   13.6548 C.ar    1  UNL1        0.0001
     10 C          65.1760   90.5483   14.5545 C.ar    1  UNL1        0.0045
     11 C          66.3824   95.1951   10.9558 C.3     1  UNL1        0.1432
     12 O          65.6105   95.9813   11.9736 O.3     1  UNL1       -0.3770
     13 C          66.5226   96.5212   10.2689 C.3     1  UNL1        0.0614
     14 C          67.3182   96.3117    9.0146 C.3     1  UNL1        0.1105
     15 N          67.6697   94.8561    8.9263 N.ar    1  UNL1       -0.3101
     16 C          68.3785   93.8270    8.0965 C.ar    1  UNL1        0.1784
     17 N          68.2383   92.5010    8.7834 N.ar    1  UNL1       -0.2226
     18 C          67.4427   92.7105   10.0377 C.ar    1  UNL1        0.1160
     19 C          67.0913   94.1660   10.1260 C.ar    1  UNL1        0.0859
     20 H          65.5795   96.9134   11.7067 H       1  UNL1        0.2112
     21 O          64.3227   86.9732   14.6539 O.2     1  UNL1       -0.2701
     22 C          63.8723   88.3526   15.0337 C.2     1  UNL1        0.2458
     23 N          63.1203   88.5704   16.3132 N.am    1  UNL1       -0.3025
     24 H          62.8247   89.4758   16.5625 H       1  UNL1        0.1497
     25 C          62.8187   87.4087   17.2130 C.3     1  UNL1        0.0720
     26 C          62.3867   85.9837   17.3939 C.3     1  UNL1        0.0213
     27 C          62.7284   86.8215   18.5903 C.3     1  UNL1        0.0213
@<TRIPOS>BOND
     1    21    22    2
     2    22    23   am
     3    23    25    1
     4    25    26    1
     5    26    27    1
     6    22     1    1
     7     1     2   ar
     8     2     3   ar
     9     3     4   ar
    10     4     5   ar
    11     5     6   ar
    12     6    11    1
    13    11    12    1
    14    11    13    1
    15    13    14    1
    16    14    15    1
    17    15    16   ar
    18    16    17   ar
    19    17    18   ar
    20    18    19   ar
    21     6     7   ar
    22     7     8   ar
    23     8     9   ar
    24     9    10   ar
    25    27    25    1
    26    10     1   ar
    27     9     4   ar
    28    19    11    1
    29    19    15   ar
    30    23    24    1
    31    12    20    1
@<TRIPOS>MOLECULE
*****
 27 31 0 0 0
SMALL
GASTEIGER

@<TRIPOS>ATOM
      1 C          64.2090   89.1339   13.6225 C.ar    1  UNL1        0.0534
      2 C          63.3069   88.7884   12.4750 C.ar    1  UNL1        0.0045
      3 C          62.8303   87.3777   12.2941 C.ar    1  UNL1        0.0001
      4 C          63.2559   86.3125   13.2606 C.ar    1  UNL1       -0.0002
      5 C          62.7793   84.9017   13.0796 C.ar    1  UNL1       -0.0017
      6 C          63.2049   83.8365   14.0461 C.ar    1  UNL1        0.0071
      7 C          64.1070   84.1820   15.1937 C.ar    1  UNL1       -0.0017
      8 C          64.5836   85.5927   15.3746 C.ar    1  UNL1       -0.0002
      9 C          64.1580   86.6580   14.4081 C.ar    1  UNL1        0.0001
     10 C          64.6345   88.0687   14.5890 C.ar    1  UNL1        0.0045
     11 C          62.7283   82.4258   13.8652 C.3     1  UNL1        0.1432
     12 O          62.1930   82.5950   15.2561 O.3     1  UNL1       -0.3770
     13 C          62.1399   81.0504   13.9750 C.3     1  UNL1        0.0614
     14 C          62.4112   80.3262   12.6898 C.3     1  UNL1        0.1105
     15 N          63.1673   81.2539   11.7856 N.ar    1  UNL1       -0.3101
     16 C          63.8023   81.3797   10.4324 C.ar    1  UNL1        0.1784
     17 N          64.3908   82.7550   10.3226 N.ar    1  UNL1       -0.2226
     18 C          64.1195   83.4792   11.6078 C.ar    1  UNL1        0.1160
     19 C          63.3633   82.5516   12.5120 C.ar    1  UNL1        0.0859
     20 H          61.7511   81.7774   15.5341 H       1  UNL1        0.2112
     21 O          63.8996   91.6822   13.2219 O.2     1  UNL1       -0.2701
     22 C          64.6856   90.5446   13.8035 C.2     1  UNL1        0.2458
     23 N          65.9480   90.8178   14.5661 N.am    1  UNL1       -0.3025
     24 H          66.4639   90.0711   14.9478 H       1  UNL1        0.1497
     25 C          66.4246   92.2285   14.7471 C.3     1  UNL1        0.0720
     26 C          66.5061   93.6448   14.2597 C.3     1  UNL1        0.0213
     27 C          67.1686   93.2557   15.5479 C.3     1  UNL1        0.0213
@<TRIPOS>BOND
     1    21    22    2
     2    22    23   am
     3    23    25    1
     4    25    26    1
     5    26    27    1
     6    22     1    1
     7     1     2   ar
     8     2     3   ar
     9     3     4   ar
    10     4     5   ar
    11     5     6   ar
    12     6    11    1
    13    11    12    1
    14    11    13    1
    15    13    14    1
    16    14    15    1
    17    15    16   ar
    18    16    17   ar
    19    17    18   ar
    20    18    19   ar
    21     6     7   ar
    22     7     8   ar
    23     8     9   ar
    24     9    10   ar
    25    27    25    1
    26    10     1   ar
    27     9     4   ar
    28    19    11    1
    29    19    15   ar
    30    23    24    1
    31    12    20    1
@<TRIPOS>MOLECULE
*****
 27 31 0 0 0
SMALL
GASTEIGER

@<TRIPOS>ATOM
      1 C          62.3023   89.6560   10.4203 C.ar    1  UNL1        0.0534
      2 C          62.8155   90.9911    9.9687 C.ar    1  UNL1        0.0045
      3 C          63.7242   91.7856   10.8593 C.ar    1  UNL1        0.0001
      4 C          64.1195   91.2449   12.2014 C.ar    1  UNL1       -0.0002
      5 C          65.0282   92.0395   13.0920 C.ar    1  UNL1       -0.0017
      6 C          65.4236   91.4988   14.4342 C.ar    1  UNL1        0.0071
      7 C          64.9102   90.1637   14.8858 C.ar    1  UNL1       -0.0017
      8 C          64.0016   89.3692   13.9952 C.ar    1  UNL1       -0.0002
      9 C          63.6062   89.9098   12.6530 C.ar    1  UNL1        0.0001
     10 C          62.6976   89.1154   11.7625 C.ar    1  UNL1        0.0045
     11 C          66.3322   92.2933   15.3247 C.3     1  UNL1        0.1432
     12 O          65.1139   92.4202   16.1905 O.3     1  UNL1       -0.3770
     13 C          66.9861   93.1143   16.3963 C.3     1  UNL1        0.0614
     14 C          68.4187   93.3287   16.0067 C.3     1  UNL1        0.1105
     15 N          68.6502   92.6402   14.6942 N.ar    1  UNL1       -0.3101
     16 C          69.6786   92.3472   13.6423 C.ar    1  UNL1        0.1784
     17 N          69.0246   91.5262   12.5708 N.ar    1  UNL1       -0.2226
     18 C          67.5921   91.3118   12.9604 C.ar    1  UNL1        0.1160
     19 C          67.3606   92.0003   14.2728 C.ar    1  UNL1        0.0859
     20 H          65.3302   92.9428   16.9785 H       1  UNL1        0.2112
     21 O          60.1846   89.5090    8.9223 O.2     1  UNL1       -0.2701
     22 C          61.3936   88.8614    9.5297 C.2     1  UNL1        0.2458
     23 N          61.6939   87.4194    9.2466 N.am    1  UNL1       -0.3025
     24 H          62.4874   86.9943    9.6453 H       1  UNL1        0.1497
     25 C          60.7852   86.6248    8.3560 C.3     1  UNL1        0.0720
     26 C          60.5713   85.4902    7.3985 C.3     1  UNL1        0.0213
     27 C          59.4252   86.3833    7.7711 C.3     1  UNL1        0.0213
@<TRIPOS>BOND
     1    21    22    2
     2    22    23   am
     3    23    25    1
     4    25    26    1
     5    26    27    1
     6    22     1    1
     7     1     2   ar
     8     2     3   ar
     9     3     4   ar
    10     4     5   ar
    11     5     6   ar
    12     6    11    1
    13    11    12    1
    14    11    13    1
    15    13    14    1
    16    14    15    1
    17    15    16   ar
    18    16    17   ar
    19    17    18   ar
    20    18    19   ar
    21     6     7   ar
    22     7     8   ar
    23     8     9   ar
    24     9    10   ar
    25    27    25    1
    26    10     1   ar
    27     9     4   ar
    28    19    11    1
    29    19    15   ar
    30    23    24    1
    31    12    20    1
@<TRIPOS>MOLECULE
*****
 27 31 0 0 0
SMALL
GASTEIGER

@<TRIPOS>ATOM
      1 C          62.2673   87.0913   10.1749 C.ar    1  UNL1        0.0534
      2 C          62.6353   86.2834   11.3839 C.ar    1  UNL1        0.0045
      3 C          63.1538   86.9678   12.6138 C.ar    1  UNL1        0.0001
      4 C          63.3044   88.4600   12.6347 C.ar    1  UNL1       -0.0002
      5 C          63.8231   89.1444   13.8646 C.ar    1  UNL1       -0.0017
      6 C          63.9736   90.6367   13.8855 C.ar    1  UNL1        0.0071
      7 C          63.6056   91.4446   12.6764 C.ar    1  UNL1       -0.0017
      8 C          63.0870   90.7602   11.4465 C.ar    1  UNL1       -0.0002
      9 C          62.9364   89.2679   11.4256 C.ar    1  UNL1        0.0001
     10 C          62.4178   88.5836   10.1957 C.ar    1  UNL1        0.0045
     11 C          64.4922   91.3210   15.1154 C.3     1  UNL1        0.1432
     12 O          63.2157   90.8331   15.7338 O.3     1  UNL1       -0.3770
     13 C          64.7439   91.9034   16.4746 C.3     1  UNL1        0.0614
     14 C          66.0676   92.6081   16.4390 C.3     1  UNL1        0.1105
     15 N          66.6340   92.4614   15.0578 N.ar    1  UNL1       -0.3101
     16 C          67.8020   92.8062   14.1822 C.ar    1  UNL1        0.1784
     17 N          67.5503   92.2238   12.8231 N.ar    1  UNL1       -0.2226
     18 C          66.2267   91.5191   12.8586 C.ar    1  UNL1        0.1160
     19 C          65.6603   91.6658   14.2397 C.ar    1  UNL1        0.0859
     20 H          63.1767   91.1163   16.6608 H       1  UNL1        0.2112
     21 O          60.3206   86.5966    8.5269 O.2     1  UNL1       -0.2701
     22 C          61.7486   86.4069    8.9449 C.2     1  UNL1        0.2458
     23 N          62.6580   85.5330    8.1331 N.am    1  UNL1       -0.3025
     24 H          63.5953   85.4085    8.4074 H       1  UNL1        0.1497
     25 C          62.1394   84.8486    6.9031 C.3     1  UNL1        0.0720
     26 C          61.0401   84.1218    6.1868 C.3     1  UNL1        0.0213
     27 C          62.3405   84.3902    5.4891 C.3     1  UNL1        0.0213
@<TRIPOS>BOND
     1    21    22    2
     2    22    23   am
     3    23    25    1
     4    25    26    1
     5    26    27    1
     6    22     1    1
     7     1     2   ar
     8     2     3   ar
     9     3     4   ar
    10     4     5   ar
    11     5     6   ar
    12     6    11    1
    13    11    12    1
    14    11    13    1
    15    13    14    1
    16    14    15    1
    17    15    16   ar
    18    16    17   ar
    19    17    18   ar
    20    18    19   ar
    21     6     7   ar
    22     7     8   ar
    23     8     9   ar
    24     9    10   ar
    25    27    25    1
    26    10     1   ar
    27     9     4   ar
    28    19    11    1
    29    19    15   ar
    30    23    24    1
    31    12    20    1
@<TRIPOS>MOLECULE
*****
 27 31 0 0 0
SMALL
GASTEIGER

@<TRIPOS>ATOM
      1 C          64.1441   90.1773   14.8880 C.ar    1  UNL1        0.0534
      2 C          65.1526   91.1049   15.4982 C.ar    1  UNL1        0.0045
      3 C          65.7647   92.1962   14.6709 C.ar    1  UNL1        0.0001
      4 C          65.3683   92.3599   13.2336 C.ar    1  UNL1       -0.0002
      5 C          65.9805   93.4512   12.4063 C.ar    1  UNL1       -0.0017
      6 C          65.5841   93.6149   10.9689 C.ar    1  UNL1        0.0071
      7 C          64.5755   92.6872   10.3588 C.ar    1  UNL1       -0.0017
      8 C          63.9633   91.5959   11.1860 C.ar    1  UNL1       -0.0002
      9 C          64.3598   91.4323   12.6234 C.ar    1  UNL1        0.0001
     10 C          63.7477   90.3410   13.4506 C.ar    1  UNL1        0.0045
     11 C          66.1962   94.7062   10.1417 C.3     1  UNL1        0.1432
     12 O          65.1609   95.5698   10.7993 O.3     1  UNL1       -0.3770
     13 C          66.5918   95.9781    9.4519 C.3     1  UNL1        0.0614
     14 C          67.7437   95.6724    8.5410 C.3     1  UNL1        0.1105
     15 N          68.0599   94.2116    8.6677 N.ar    1  UNL1       -0.3101
     16 C          68.9672   93.1198    8.1831 C.ar    1  UNL1        0.1784
     17 N          68.5715   91.8480    8.8729 N.ar    1  UNL1       -0.2226
     18 C          67.4197   92.1537    9.7838 C.ar    1  UNL1        0.1160
     19 C          67.1034   93.6144    9.6571 C.ar    1  UNL1        0.0859
     20 H          65.2467   96.4803   10.4760 H       1  UNL1        0.2112
     21 O          62.5376   89.4245   16.7860 O.2     1  UNL1       -0.2701
     22 C          63.5319   89.0859   15.7153 C.2     1  UNL1        0.2458
     23 N          63.9142   87.6561   15.4717 N.am    1  UNL1       -0.3025
     24 H          64.5668   87.4339   14.7689 H       1  UNL1        0.1497
     25 C          63.3020   86.5647   16.2989 C.3     1  UNL1        0.0720
     26 C          62.7351   86.0851   17.6022 C.3     1  UNL1        0.0213
     27 C          62.8086   85.1541   16.4284 C.3     1  UNL1        0.0213
@<TRIPOS>BOND
     1    21    22    2
     2    22    23   am
     3    23    25    1
     4    25    26    1
     5    26    27    1
     6    22     1    1
     7     1     2   ar
     8     2     3   ar
     9     3     4   ar
    10     4     5   ar
    11     5     6   ar
    12     6    11    1
    13    11    12    1
    14    11    13    1
    15    13    14    1
    16    14    15    1
    17    15    16   ar
    18    16    17   ar
    19    17    18   ar
    20    18    19   ar
    21     6     7   ar
    22     7     8   ar
    23     8     9   ar
    24     9    10   ar
    25    27    25    1
    26    10     1   ar
    27     9     4   ar
    28    19    11    1
    29    19    15   ar
    30    23    24    1
    31    12    20    1
@<TRIPOS>MOLECULE
*****
 27 31 0 0 0
SMALL
GASTEIGER

@<TRIPOS>ATOM
      1 C          63.9638   88.5735   13.9738 C.ar    1  UNL1        0.0534
      2 C          63.1495   88.5653   12.7141 C.ar    1  UNL1        0.0045
      3 C          62.9010   87.2753   11.9902 C.ar    1  UNL1        0.0001
      4 C          63.4667   85.9935   12.5260 C.ar    1  UNL1       -0.0002
      5 C          63.2182   84.7035   11.8020 C.ar    1  UNL1       -0.0017
      6 C          63.7839   83.4217   12.3378 C.ar    1  UNL1        0.0071
      7 C          64.5982   83.4300   13.5975 C.ar    1  UNL1       -0.0017
      8 C          64.8467   84.7200   14.3214 C.ar    1  UNL1       -0.0002
      9 C          64.2810   86.0018   13.7856 C.ar    1  UNL1        0.0001
     10 C          64.5295   87.2918   14.5095 C.ar    1  UNL1        0.0045
     11 C          63.5354   82.1317   11.6139 C.3     1  UNL1        0.1432
     12 O          64.4487   82.7189   10.5789 O.3     1  UNL1       -0.3770
     13 C          63.4778   80.9645   10.6735 C.3     1  UNL1        0.0614
     14 C          62.5808   79.9256   11.2787 C.3     1  UNL1        0.1105
     15 N          62.0840   80.4508   12.5930 N.ar    1  UNL1       -0.3101
     16 C          61.2226   80.1334   13.7793 C.ar    1  UNL1        0.1784
     17 N          61.2802   81.3006   14.7195 N.ar    1  UNL1       -0.2226
     18 C          62.1772   82.3394   14.1144 C.ar    1  UNL1        0.1160
     19 C          62.6740   81.8143   12.8001 C.ar    1  UNL1        0.0859
     20 H          64.5517   82.0922    9.8457 H       1  UNL1        0.2112
     21 O          63.1567   90.4338   15.5980 O.2     1  UNL1       -0.2701
     22 C          64.2124   89.8636   14.6977 C.2     1  UNL1        0.2458
     23 N          65.5165   90.5833   14.5215 N.am    1  UNL1       -0.3025
     24 H          66.2094   90.2090   13.9306 H       1  UNL1        0.1497
     25 C          65.7651   91.8734   15.2454 C.3     1  UNL1        0.0720
     26 C          65.4958   92.7842   16.4063 C.3     1  UNL1        0.0213
     27 C          66.4650   93.1968   15.3385 C.3     1  UNL1        0.0213
@<TRIPOS>BOND
     1    21    22    2
     2    22    23   am
     3    23    25    1
     4    25    26    1
     5    26    27    1
     6    22     1    1
     7     1     2   ar
     8     2     3   ar
     9     3     4   ar
    10     4     5   ar
    11     5     6   ar
    12     6    11    1
    13    11    12    1
    14    11    13    1
    15    13    14    1
    16    14    15    1
    17    15    16   ar
    18    16    17   ar
    19    17    18   ar
    20    18    19   ar
    21     6     7   ar
    22     7     8   ar
    23     8     9   ar
    24     9    10   ar
    25    27    25    1
    26    10     1   ar
    27     9     4   ar
    28    19    11    1
    29    19    15   ar
    30    23    24    1
    31    12    20    1
