@<TRIPOS>MOLECULE
*****
 30 34 0 0 0
SMALL
GASTEIGER

@<TRIPOS>ATOM
      1 C          62.7585   78.4561   10.3046 C.3     1  UNL1        0.0899
      2 N          62.8336   79.6062   11.2646 N.3     1  UNL1       -0.2662
      3 C          62.7221   79.3602   12.7400 C.3     1  UNL1        0.0772
      4 C          62.7972   80.5103   13.7000 C.3     1  UNL1        0.0449
      5 C          62.9839   81.9065   13.1845 C.ar    1  UNL1       -0.0064
      6 C          63.0954   82.1526   11.7091 C.ar    1  UNL1        0.0494
      7 N          63.2737   83.6268   11.4972 N.ar    1  UNL1       -0.3276
      8 C          63.4264   84.3151   10.1732 C.3     1  UNL1        0.1301
      9 C          63.2723   84.2919   12.8417 C.ar    1  UNL1        0.0609
     10 C          63.4109   85.7282   13.2511 C.ar    1  UNL1        0.0348
     11 C          63.3705   86.1014   14.7034 C.ar    1  UNL1        0.0683
     12 C          63.1914   85.0382   15.7463 C.ar    1  UNL1        0.0177
     13 C          63.0528   83.6018   15.3368 C.ar    1  UNL1        0.0027
     14 C          63.0932   83.2287   13.8845 C.ar    1  UNL1        0.0131
     15 C          63.0203   81.0024   10.7491 C.3     1  UNL1        0.1163
     16 N          63.5092   87.5378   15.1129 N.ar    1  UNL1       -0.2729
     17 C          64.1754   88.5186   14.1941 C.ar    1  UNL1        0.0860
     18 C          64.3141   89.9549   14.6035 C.ar    1  UNL1        0.0561
     19 C          63.7865   90.4104   15.9317 C.ar    1  UNL1        0.1453
     20 C          63.1203   89.4296   16.8505 C.ar    1  UNL1        0.0980
     21 C          62.9816   87.9933   16.4411 C.ar    1  UNL1        0.2679
     22 O          62.3154   87.0124   17.3599 O.2     1  UNL1       -0.2665
     23 O          63.9252   91.8468   16.3412 O.3     1  UNL1       -0.4704
     24 C          65.2591   92.3771   16.7767 C.3     1  UNL1        0.2320
     25 C          66.4052   92.4101   15.8096 C.ar    1  UNL1        0.0212
     26 C          67.8158   92.4375   16.3190 C.ar    1  UNL1       -0.0007
     27 C          68.9619   92.4705   15.3518 C.ar    1  UNL1       -0.0002
     28 C          68.6974   92.4761   13.8753 C.ar    1  UNL1       -0.0000
     29 C          67.2868   92.4486   13.3660 C.ar    1  UNL1       -0.0002
     30 C          66.1407   92.4156   14.3330 C.ar    1  UNL1       -0.0007
@<TRIPOS>BOND
     1     1     2    1
     2     2     3    1
     3     3     4    1
     4     4     5    1
     5     5     6   ar
     6     6     7   ar
     7     7     8    1
     8     7     9   ar
     9     9    10   ar
    10    10    11   ar
    11    11    16    1
    12    16    17   ar
    13    17    18   ar
    14    18    19   ar
    15    19    23    1
    16    23    24    1
    17    24    25    1
    18    25    26   ar
    19    26    27   ar
    20    27    28   ar
    21    28    29   ar
    22    29    30   ar
    23    19    20   ar
    24    20    21   ar
    25    21    22    2
    26    11    12   ar
    27    12    13   ar
    28    13    14   ar
    29     6    15    1
    30    15     2    1
    31    14     5   ar
    32    14     9   ar
    33    21    16   ar
    34    30    25   ar
@<TRIPOS>MOLECULE
*****
 30 34 0 0 0
SMALL
GASTEIGER

@<TRIPOS>ATOM
      1 C          62.4462   78.1021   10.8213 C.3     1  UNL1        0.0899
      2 N          62.5936   79.4258   11.5112 N.3     1  UNL1       -0.2662
      3 C          62.4202   79.5199   12.9981 C.3     1  UNL1        0.0772
      4 C          62.5676   80.8437   13.6881 C.3     1  UNL1        0.0449
      5 C          62.8884   82.0732   12.8911 C.ar    1  UNL1       -0.0064
      6 C          63.0618   81.9791   11.4042 C.ar    1  UNL1        0.0494
      7 N          63.3724   83.3520   10.8858 N.ar    1  UNL1       -0.3276
      8 C          63.6208   83.7180    9.4526 C.3     1  UNL1        0.1301
      9 C          63.3910   84.2947   12.0525 C.ar    1  UNL1        0.0609
     10 C          63.6417   85.7706   12.1464 C.ar    1  UNL1        0.0348
     11 C          63.5933   86.4562   13.4798 C.ar    1  UNL1        0.0683
     12 C          63.2941   85.6659   14.7191 C.ar    1  UNL1        0.0177
     13 C          63.0434   84.1899   14.6251 C.ar    1  UNL1        0.0027
     14 C          63.0919   83.5043   13.2918 C.ar    1  UNL1        0.0131
     15 C          62.9144   80.6554   10.7142 C.3     1  UNL1        0.1163
     16 N          63.8440   87.9321   13.5737 N.ar    1  UNL1       -0.2729
     17 C          64.6016   88.4913   14.7413 C.ar    1  UNL1        0.0860
     18 C          64.8523   89.9672   14.8353 C.ar    1  UNL1        0.0561
     19 C          64.3453   90.8839   13.7616 C.ar    1  UNL1        0.1453
     20 C          63.5877   90.3247   12.5941 C.ar    1  UNL1        0.0980
     21 C          63.3370   88.8488   12.5001 C.ar    1  UNL1        0.2679
     22 O          62.5793   88.2895   11.3325 O.2     1  UNL1       -0.2665
     23 O          64.5960   92.3598   13.8556 O.3     1  UNL1       -0.4704
     24 C          65.9763   92.9020   13.6299 C.3     1  UNL1        0.2320
     25 C          66.4586   93.1682   12.2348 C.ar    1  UNL1        0.0212
     26 C          66.1438   94.4750   11.5689 C.ar    1  UNL1       -0.0007
     27 C          66.6261   94.7413   10.1737 C.ar    1  UNL1       -0.0002
     28 C          67.4233   93.7008    9.4444 C.ar    1  UNL1       -0.0000
     29 C          67.7382   92.3941   10.1102 C.ar    1  UNL1       -0.0002
     30 C          67.2558   92.1278   11.5053 C.ar    1  UNL1       -0.0007
@<TRIPOS>BOND
     1     1     2    1
     2     2     3    1
     3     3     4    1
     4     4     5    1
     5     5     6   ar
     6     6     7   ar
     7     7     8    1
     8     7     9   ar
     9     9    10   ar
    10    10    11   ar
    11    11    16    1
    12    16    17   ar
    13    17    18   ar
    14    18    19   ar
    15    19    23    1
    16    23    24    1
    17    24    25    1
    18    25    26   ar
    19    26    27   ar
    20    27    28   ar
    21    28    29   ar
    22    29    30   ar
    23    19    20   ar
    24    20    21   ar
    25    21    22    2
    26    11    12   ar
    27    12    13   ar
    28    13    14   ar
    29     6    15    1
    30    15     2    1
    31    14     5   ar
    32    14     9   ar
    33    21    16   ar
    34    30    25   ar
@<TRIPOS>MOLECULE
*****
 30 34 0 0 0
SMALL
GASTEIGER

@<TRIPOS>ATOM
      1 C          69.5290   94.7900   16.1865 C.3     1  UNL1        0.0899
      2 N          68.4675   93.8446   15.7076 N.3     1  UNL1       -0.2662
      3 C          68.1166   92.6355   16.5231 C.3     1  UNL1        0.0772
      4 C          67.0551   91.6901   16.0442 C.3     1  UNL1        0.0449
      5 C          66.3443   91.9538   14.7499 C.ar    1  UNL1       -0.0064
      6 C          66.6952   93.1629   13.9344 C.ar    1  UNL1        0.0494
      7 N          65.8304   93.1622   12.7087 N.ar    1  UNL1       -0.3276
      8 C          65.8479   94.1905   11.6168 C.3     1  UNL1        0.1301
      9 C          64.9452   91.9527   12.7667 C.ar    1  UNL1        0.0609
     10 C          63.8909   91.4349   11.8338 C.ar    1  UNL1        0.0348
     11 C          63.1541   90.1702   12.1624 C.ar    1  UNL1        0.0683
     12 C          63.4717   89.4234   13.4239 C.ar    1  UNL1        0.0177
     13 C          64.5261   89.9413   14.3568 C.ar    1  UNL1        0.0027
     14 C          65.2628   91.2059   14.0282 C.ar    1  UNL1        0.0131
     15 C          67.7568   94.1083   14.4133 C.3     1  UNL1        0.1163
     16 N          62.0999   89.6524   11.2295 N.ar    1  UNL1       -0.2729
     17 C          62.4264   89.4189    9.7842 C.ar    1  UNL1        0.0860
     18 C          61.3721   88.9011    8.8513 C.ar    1  UNL1        0.0561
     19 C          59.9913   88.6168    9.3637 C.ar    1  UNL1        0.1453
     20 C          59.6648   88.8503   10.8090 C.ar    1  UNL1        0.0980
     21 C          60.7191   89.3681   11.7419 C.ar    1  UNL1        0.2679
     22 O          60.3926   89.6016   13.1872 O.2     1  UNL1       -0.2665
     23 O          58.9370   88.0990    8.4308 O.3     1  UNL1       -0.4704
     24 C          59.0640   86.7242    7.8444 C.3     1  UNL1        0.2320
     25 C          60.3887   86.0208    7.8620 C.ar    1  UNL1        0.0212
     26 C          60.9118   85.3753    6.6131 C.ar    1  UNL1       -0.0007
     27 C          62.2366   84.6718    6.6308 C.ar    1  UNL1       -0.0002
     28 C          63.0381   84.6138    7.8973 C.ar    1  UNL1       -0.0000
     29 C          62.5150   85.2592    9.1462 C.ar    1  UNL1       -0.0002
     30 C          61.1903   85.9627    9.1286 C.ar    1  UNL1       -0.0007
@<TRIPOS>BOND
     1     1     2    1
     2     2     3    1
     3     3     4    1
     4     4     5    1
     5     5     6   ar
     6     6     7   ar
     7     7     8    1
     8     7     9   ar
     9     9    10   ar
    10    10    11   ar
    11    11    16    1
    12    16    17   ar
    13    17    18   ar
    14    18    19   ar
    15    19    23    1
    16    23    24    1
    17    24    25    1
    18    25    26   ar
    19    26    27   ar
    20    27    28   ar
    21    28    29   ar
    22    29    30   ar
    23    19    20   ar
    24    20    21   ar
    25    21    22    2
    26    11    12   ar
    27    12    13   ar
    28    13    14   ar
    29     6    15    1
    30    15     2    1
    31    14     5   ar
    32    14     9   ar
    33    21    16   ar
    34    30    25   ar
@<TRIPOS>MOLECULE
*****
 30 34 0 0 0
SMALL
GASTEIGER

@<TRIPOS>ATOM
      1 C          69.5242   94.5497   16.1798 C.3     1  UNL1        0.0899
      2 N          68.4577   93.6230   15.6761 N.3     1  UNL1       -0.2662
      3 C          68.1062   92.3902   16.4549 C.3     1  UNL1        0.0772
      4 C          67.0397   91.4635   15.9512 C.3     1  UNL1        0.0449
      5 C          66.3246   91.7696   14.6687 C.ar    1  UNL1       -0.0064
      6 C          66.6760   93.0024   13.8899 C.ar    1  UNL1        0.0494
      7 N          65.8063   93.0427   12.6684 N.ar    1  UNL1       -0.3276
      8 C          65.8227   94.1045   11.6090 C.3     1  UNL1        0.1301
      9 C          64.9174   91.8347   12.6923 C.ar    1  UNL1        0.0609
     10 C          63.8577   91.3496   11.7481 C.ar    1  UNL1        0.0348
     11 C          63.1182   90.0775   12.0401 C.ar    1  UNL1        0.0683
     12 C          63.4385   89.2907   13.2764 C.ar    1  UNL1        0.0177
     13 C          64.4983   89.7759   14.2206 C.ar    1  UNL1        0.0027
     14 C          65.2377   91.0479   13.9286 C.ar    1  UNL1        0.0131
     15 C          67.7426   93.9291   14.3936 C.3     1  UNL1        0.1163
     16 N          62.0585   89.5923   11.0959 N.ar    1  UNL1       -0.2729
     17 C          61.2136   90.5790   10.3456 C.ar    1  UNL1        0.0860
     18 C          60.1539   90.0938    9.4014 C.ar    1  UNL1        0.0561
     19 C          59.9390   88.6220    9.2075 C.ar    1  UNL1        0.1453
     20 C          60.7839   87.6354    9.9577 C.ar    1  UNL1        0.0980
     21 C          61.8436   88.1205   10.9019 C.ar    1  UNL1        0.2679
     22 O          62.6885   87.1339   11.6521 O.2     1  UNL1       -0.2665
     23 O          58.8793   88.1368    8.2632 O.3     1  UNL1       -0.4704
     24 C          59.1086   88.1995    6.7822 C.3     1  UNL1        0.2320
     25 C          59.0208   89.5137    6.0646 C.ar    1  UNL1        0.0212
     26 C          60.2684   90.1808    5.5659 C.ar    1  UNL1       -0.0007
     27 C          60.1805   91.4952    4.8483 C.ar    1  UNL1       -0.0002
     28 C          58.8451   92.1423    4.6293 C.ar    1  UNL1       -0.0000
     29 C          57.5976   91.4752    5.1280 C.ar    1  UNL1       -0.0002
     30 C          57.6854   90.1610    5.8456 C.ar    1  UNL1       -0.0007
@<TRIPOS>BOND
     1     1     2    1
     2     2     3    1
     3     3     4    1
     4     4     5    1
     5     5     6   ar
     6     6     7   ar
     7     7     8    1
     8     7     9   ar
     9     9    10   ar
    10    10    11   ar
    11    11    16    1
    12    16    17   ar
    13    17    18   ar
    14    18    19   ar
    15    19    23    1
    16    23    24    1
    17    24    25    1
    18    25    26   ar
    19    26    27   ar
    20    27    28   ar
    21    28    29   ar
    22    29    30   ar
    23    19    20   ar
    24    20    21   ar
    25    21    22    2
    26    11    12   ar
    27    12    13   ar
    28    13    14   ar
    29     6    15    1
    30    15     2    1
    31    14     5   ar
    32    14     9   ar
    33    21    16   ar
    34    30    25   ar
@<TRIPOS>MOLECULE
*****
 30 34 0 0 0
SMALL
GASTEIGER

@<TRIPOS>ATOM
      1 C          65.9789   96.8542    8.8293 C.3     1  UNL1        0.0899
      2 N          65.9056   95.8197    9.9130 N.3     1  UNL1       -0.2662
      3 C          66.6327   96.0363   11.2070 C.3     1  UNL1        0.0772
      4 C          66.5593   95.0019   12.2908 C.3     1  UNL1        0.0449
      5 C          65.7590   93.7508   12.0805 C.ar    1  UNL1       -0.0064
      6 C          65.0319   93.5342   10.7866 C.ar    1  UNL1        0.0494
      7 N          64.3275   92.2123   10.8663 N.ar    1  UNL1       -0.3276
      8 C          63.4801   91.5985    9.7915 C.3     1  UNL1        0.1301
      9 C          64.6192   91.6119   12.2096 C.ar    1  UNL1        0.0609
     10 C          64.1935   90.3222   12.8464 C.ar    1  UNL1        0.0348
     11 C          64.6526   89.9834   14.2337 C.ar    1  UNL1        0.0683
     12 C          65.5373   90.9342   14.9841 C.ar    1  UNL1        0.0177
     13 C          65.9630   92.2240   14.3473 C.ar    1  UNL1        0.0027
     14 C          65.5039   92.5628   12.9600 C.ar    1  UNL1        0.0131
     15 C          65.1052   94.5687    9.7028 C.3     1  UNL1        0.1163
     16 N          64.2269   88.6937   14.8705 N.ar    1  UNL1       -0.2729
     17 C          64.5970   87.3859   14.2359 C.ar    1  UNL1        0.0860
     18 C          64.1713   86.0962   14.8727 C.ar    1  UNL1        0.0561
     19 C          63.3756   86.1144   16.1441 C.ar    1  UNL1        0.1453
     20 C          63.0055   87.4222   16.7787 C.ar    1  UNL1        0.0980
     21 C          63.4312   88.7119   16.1419 C.ar    1  UNL1        0.2679
     22 O          63.0611   90.0197   16.7765 O.2     1  UNL1       -0.2665
     23 O          62.9499   84.8247   16.7809 O.3     1  UNL1       -0.4704
     24 C          62.0080   83.9070   16.0594 C.3     1  UNL1        0.2320
     25 C          62.5168   83.0243   14.9586 C.ar    1  UNL1        0.0212
     26 C          63.9303   83.1655   14.4768 C.ar    1  UNL1       -0.0007
     27 C          64.4391   82.2827   13.3759 C.ar    1  UNL1       -0.0002
     28 C          63.5345   81.2588   12.7569 C.ar    1  UNL1       -0.0000
     29 C          62.1210   81.1176   13.2387 C.ar    1  UNL1       -0.0002
     30 C          61.6121   82.0003   14.3395 C.ar    1  UNL1       -0.0007
@<TRIPOS>BOND
     1     1     2    1
     2     2     3    1
     3     3     4    1
     4     4     5    1
     5     5     6   ar
     6     6     7   ar
     7     7     8    1
     8     7     9   ar
     9     9    10   ar
    10    10    11   ar
    11    11    16    1
    12    16    17   ar
    13    17    18   ar
    14    18    19   ar
    15    19    23    1
    16    23    24    1
    17    24    25    1
    18    25    26   ar
    19    26    27   ar
    20    27    28   ar
    21    28    29   ar
    22    29    30   ar
    23    19    20   ar
    24    20    21   ar
    25    21    22    2
    26    11    12   ar
    27    12    13   ar
    28    13    14   ar
    29     6    15    1
    30    15     2    1
    31    14     5   ar
    32    14     9   ar
    33    21    16   ar
    34    30    25   ar
@<TRIPOS>MOLECULE
*****
 30 34 0 0 0
SMALL
GASTEIGER

@<TRIPOS>ATOM
      1 C          66.0142   96.5344   10.3651 C.3     1  UNL1        0.0899
      2 N          65.8560   95.2783   11.1695 N.3     1  UNL1       -0.2662
      3 C          66.5069   95.1630   12.5159 C.3     1  UNL1        0.0772
      4 C          66.3486   93.9068   13.3204 C.3     1  UNL1        0.0449
      5 C          65.5395   92.7660   12.7783 C.ar    1  UNL1       -0.0064
      6 C          64.8886   92.8814   11.4318 C.ar    1  UNL1        0.0494
      7 N          64.1562   91.6008   11.1598 N.ar    1  UNL1       -0.3276
      8 C          63.3646   91.2829    9.9260 C.3     1  UNL1        0.1301
      9 C          64.3545   90.6941   12.3381 C.ar    1  UNL1        0.0609
     10 C          63.8671   89.3058   12.6295 C.ar    1  UNL1        0.0348
     11 C          64.2346   88.6375   13.9212 C.ar    1  UNL1        0.0683
     12 C          65.0895   89.3576   14.9215 C.ar    1  UNL1        0.0177
     13 C          65.5769   90.7461   14.6301 C.ar    1  UNL1        0.0027
     14 C          65.2094   91.4143   13.3384 C.ar    1  UNL1        0.0131
     15 C          65.0469   94.1375   10.6274 C.3     1  UNL1        0.1163
     16 N          63.7472   87.2492   14.2126 N.ar    1  UNL1       -0.2729
     17 C          63.9978   86.6330   15.5571 C.ar    1  UNL1        0.0860
     18 C          63.5104   85.2447   15.8485 C.ar    1  UNL1        0.0561
     19 C          62.7723   84.4725   14.7954 C.ar    1  UNL1        0.1453
     20 C          62.5217   85.0887   13.4509 C.ar    1  UNL1        0.0980
     21 C          63.0091   86.4770   13.1595 C.ar    1  UNL1        0.2679
     22 O          62.7585   87.0931   11.8150 O.2     1  UNL1       -0.2665
     23 O          62.2849   83.0842   15.0867 O.3     1  UNL1       -0.4704
     24 C          63.0002   81.9007   14.5055 C.3     1  UNL1        0.2320
     25 C          63.3181   81.8619   13.0401 C.ar    1  UNL1        0.0212
     26 C          62.6455   80.8564   12.1532 C.ar    1  UNL1       -0.0007
     27 C          62.9634   80.8176   10.6877 C.ar    1  UNL1       -0.0002
     28 C          63.9538   81.7843   10.1092 C.ar    1  UNL1       -0.0000
     29 C          64.6263   82.7899   10.9961 C.ar    1  UNL1       -0.0002
     30 C          64.3084   82.8287   12.4616 C.ar    1  UNL1       -0.0007
@<TRIPOS>BOND
     1     1     2    1
     2     2     3    1
     3     3     4    1
     4     4     5    1
     5     5     6   ar
     6     6     7   ar
     7     7     8    1
     8     7     9   ar
     9     9    10   ar
    10    10    11   ar
    11    11    16    1
    12    16    17   ar
    13    17    18   ar
    14    18    19   ar
    15    19    23    1
    16    23    24    1
    17    24    25    1
    18    25    26   ar
    19    26    27   ar
    20    27    28   ar
    21    28    29   ar
    22    29    30   ar
    23    19    20   ar
    24    20    21   ar
    25    21    22    2
    26    11    12   ar
    27    12    13   ar
    28    13    14   ar
    29     6    15    1
    30    15     2    1
    31    14     5   ar
    32    14     9   ar
    33    21    16   ar
    34    30    25   ar
@<TRIPOS>MOLECULE
*****
 30 34 0 0 0
SMALL
GASTEIGER

@<TRIPOS>ATOM
      1 C          62.6469   77.0421   10.9188 C.3     1  UNL1        0.0899
      2 N          62.7572   78.5375   10.8790 N.3     1  UNL1       -0.2662
      3 C          62.8566   79.2474    9.5614 C.3     1  UNL1        0.0772
      4 C          62.9668   80.7429    9.5217 C.3     1  UNL1        0.0449
      5 C          62.9777   81.5283   10.7995 C.ar    1  UNL1       -0.0064
      6 C          62.8783   80.8184   12.1171 C.ar    1  UNL1        0.0494
      7 N          62.9141   81.8514   13.2042 N.ar    1  UNL1       -0.3276
      8 C          62.8412   81.5831   14.6781 C.3     1  UNL1        0.1301
      9 C          63.0356   83.1998   12.5583 C.ar    1  UNL1        0.0609
     10 C          63.1156   84.5836   13.1315 C.ar    1  UNL1        0.0348
     11 C          63.2348   85.7679   12.2185 C.ar    1  UNL1        0.0683
     12 C          63.2741   85.5682   10.7324 C.ar    1  UNL1        0.0177
     13 C          63.1942   84.1843   10.1592 C.ar    1  UNL1        0.0027
     14 C          63.0749   83.0001   11.0722 C.ar    1  UNL1        0.0131
     15 C          62.7681   79.3230   12.1568 C.3     1  UNL1        0.1163
     16 N          63.3148   87.1517   12.7917 N.ar    1  UNL1       -0.2729
     17 C          62.7040   88.3058   12.0533 C.ar    1  UNL1        0.0860
     18 C          62.7840   89.6897   12.6265 C.ar    1  UNL1        0.0561
     19 C          63.4746   89.9194   13.9380 C.ar    1  UNL1        0.1453
     20 C          64.0853   88.7654   14.6764 C.ar    1  UNL1        0.0980
     21 C          64.0054   87.3815   14.1033 C.ar    1  UNL1        0.2679
     22 O          64.6161   86.2275   14.8417 O.2     1  UNL1       -0.2665
     23 O          63.5546   91.3033   14.5112 O.3     1  UNL1       -0.4704
     24 C          64.5108   91.5982   15.6287 C.3     1  UNL1        0.2320
     25 C          65.9369   91.9480   15.3228 C.ar    1  UNL1        0.0212
     26 C          66.5433   91.5450   14.0114 C.ar    1  UNL1       -0.0007
     27 C          67.9696   91.8949   13.7055 C.ar    1  UNL1       -0.0002
     28 C          68.7894   92.6478   14.7110 C.ar    1  UNL1       -0.0000
     29 C          68.1829   93.0509   16.0225 C.ar    1  UNL1       -0.0002
     30 C          66.7568   92.7010   16.3284 C.ar    1  UNL1       -0.0007
@<TRIPOS>BOND
     1     1     2    1
     2     2     3    1
     3     3     4    1
     4     4     5    1
     5     5     6   ar
     6     6     7   ar
     7     7     8    1
     8     7     9   ar
     9     9    10   ar
    10    10    11   ar
    11    11    16    1
    12    16    17   ar
    13    17    18   ar
    14    18    19   ar
    15    19    23    1
    16    23    24    1
    17    24    25    1
    18    25    26   ar
    19    26    27   ar
    20    27    28   ar
    21    28    29   ar
    22    29    30   ar
    23    19    20   ar
    24    20    21   ar
    25    21    22    2
    26    11    12   ar
    27    12    13   ar
    28    13    14   ar
    29     6    15    1
    30    15     2    1
    31    14     5   ar
    32    14     9   ar
    33    21    16   ar
    34    30    25   ar
@<TRIPOS>MOLECULE
*****
 30 34 0 0 0
SMALL
GASTEIGER

@<TRIPOS>ATOM
      1 C          62.6193   76.9812   10.9044 C.3     1  UNL1        0.0899
      2 N          62.7428   78.4756   10.8660 N.3     1  UNL1       -0.2662
      3 C          62.8746   79.1837    9.5503 C.3     1  UNL1        0.0772
      4 C          62.9980   80.6781    9.5119 C.3     1  UNL1        0.0449
      5 C          62.9896   81.4644   10.7892 C.ar    1  UNL1       -0.0064
      6 C          62.8578   80.7563   12.1049 C.ar    1  UNL1        0.0494
      7 N          62.8802   81.7899   13.1919 N.ar    1  UNL1       -0.3276
      8 C          62.7753   81.5233   14.6642 C.3     1  UNL1        0.1301
      9 C          63.0259   83.1367   12.5478 C.ar    1  UNL1        0.0609
     10 C          63.1057   84.5203   13.1217 C.ar    1  UNL1        0.0348
     11 C          63.2532   85.7028   12.2106 C.ar    1  UNL1        0.0683
     12 C          63.3208   85.5017   10.7257 C.ar    1  UNL1        0.0177
     13 C          63.2410   84.1180   10.1518 C.ar    1  UNL1        0.0027
     14 C          63.0935   82.9356   11.0629 C.ar    1  UNL1        0.0131
     15 C          62.7344   79.2619   12.1433 C.3     1  UNL1        0.1163
     16 N          63.3330   87.0864   12.7845 N.ar    1  UNL1       -0.2729
     17 C          64.0442   87.3193   14.0845 C.ar    1  UNL1        0.0860
     18 C          64.1240   88.7028   14.6583 C.ar    1  UNL1        0.0561
     19 C          63.4927   89.8535   13.9322 C.ar    1  UNL1        0.1453
     20 C          62.7815   89.6206   12.6322 C.ar    1  UNL1        0.0980
     21 C          62.7016   88.2370   12.0583 C.ar    1  UNL1        0.2679
     22 O          61.9904   88.0042   10.7583 O.2     1  UNL1       -0.2665
     23 O          63.5725   91.2371   14.5060 O.3     1  UNL1       -0.4704
     24 C          64.9096   91.8645   14.7677 C.3     1  UNL1        0.2320
     25 C          65.9051   92.0005   13.6540 C.ar    1  UNL1        0.0212
     26 C          67.3508   91.6827   13.8973 C.ar    1  UNL1       -0.0007
     27 C          68.3464   91.8187   12.7835 C.ar    1  UNL1       -0.0002
     28 C          67.8962   92.2724   11.4264 C.ar    1  UNL1       -0.0000
     29 C          66.4506   92.5901   11.1831 C.ar    1  UNL1       -0.0002
     30 C          65.4551   92.4542   12.2968 C.ar    1  UNL1       -0.0007
@<TRIPOS>BOND
     1     1     2    1
     2     2     3    1
     3     3     4    1
     4     4     5    1
     5     5     6   ar
     6     6     7   ar
     7     7     8    1
     8     7     9   ar
     9     9    10   ar
    10    10    11   ar
    11    11    16    1
    12    16    17   ar
    13    17    18   ar
    14    18    19   ar
    15    19    23    1
    16    23    24    1
    17    24    25    1
    18    25    26   ar
    19    26    27   ar
    20    27    28   ar
    21    28    29   ar
    22    29    30   ar
    23    19    20   ar
    24    20    21   ar
    25    21    22    2
    26    11    12   ar
    27    12    13   ar
    28    13    14   ar
    29     6    15    1
    30    15     2    1
    31    14     5   ar
    32    14     9   ar
    33    21    16   ar
    34    30    25   ar
@<TRIPOS>MOLECULE
*****
 30 34 0 0 0
SMALL
GASTEIGER

@<TRIPOS>ATOM
      1 C          62.4716   78.8752   13.7382 C.3     1  UNL1        0.0899
      2 N          62.5296   80.3303   13.3783 N.3     1  UNL1       -0.2662
      3 C          61.8711   80.8191   12.1225 C.3     1  UNL1        0.0772
      4 C          61.9291   82.2742   11.7626 C.3     1  UNL1        0.0449
      5 C          62.6457   83.2404   12.6587 C.ar    1  UNL1       -0.0064
      6 C          63.3042   82.7515   13.9146 C.ar    1  UNL1        0.0494
      7 N          63.9331   83.9299   14.5972 N.ar    1  UNL1       -0.3276
      8 C          64.6976   83.8970   15.8873 C.3     1  UNL1        0.1301
      9 C          63.6632   85.1471   13.7631 C.ar    1  UNL1        0.0609
     10 C          64.0391   86.5884   13.9398 C.ar    1  UNL1        0.0348
     11 C          63.6194   87.6036   12.9183 C.ar    1  UNL1        0.0683
     12 C          62.8238   87.1775   11.7203 C.ar    1  UNL1        0.0177
     13 C          62.4478   85.7360   11.5437 C.ar    1  UNL1        0.0027
     14 C          62.8676   84.7209   12.5651 C.ar    1  UNL1        0.0131
     15 C          63.2462   81.2965   14.2744 C.3     1  UNL1        0.1163
     16 N          63.9954   89.0450   13.0950 N.ar    1  UNL1       -0.2729
     17 C          64.7956   89.4703   14.2903 C.ar    1  UNL1        0.0860
     18 C          65.1715   90.9116   14.4669 C.ar    1  UNL1        0.0561
     19 C          64.7472   91.9276   13.4482 C.ar    1  UNL1        0.1453
     20 C          63.9470   91.5023   12.2529 C.ar    1  UNL1        0.0980
     21 C          63.5711   90.0610   12.0763 C.ar    1  UNL1        0.2679
     22 O          62.7709   89.6356   10.8810 O.2     1  UNL1       -0.2665
     23 O          65.1232   93.3689   13.6249 O.3     1  UNL1       -0.4704
     24 C          66.4828   93.8460   13.2078 C.3     1  UNL1        0.2320
     25 C          66.9337   93.6772   11.7872 C.ar    1  UNL1        0.0212
     26 C          67.5982   92.4028   11.3576 C.ar    1  UNL1       -0.0007
     27 C          68.0491   92.2341    9.9369 C.ar    1  UNL1       -0.0002
     28 C          67.8355   93.3396    8.9459 C.ar    1  UNL1       -0.0000
     29 C          67.1710   94.6139    9.3755 C.ar    1  UNL1       -0.0002
     30 C          66.7201   94.7827   10.7961 C.ar    1  UNL1       -0.0007
@<TRIPOS>BOND
     1     1     2    1
     2     2     3    1
     3     3     4    1
     4     4     5    1
     5     5     6   ar
     6     6     7   ar
     7     7     8    1
     8     7     9   ar
     9     9    10   ar
    10    10    11   ar
    11    11    16    1
    12    16    17   ar
    13    17    18   ar
    14    18    19   ar
    15    19    23    1
    16    23    24    1
    17    24    25    1
    18    25    26   ar
    19    26    27   ar
    20    27    28   ar
    21    28    29   ar
    22    29    30   ar
    23    19    20   ar
    24    20    21   ar
    25    21    22    2
    26    11    12   ar
    27    12    13   ar
    28    13    14   ar
    29     6    15    1
    30    15     2    1
    31    14     5   ar
    32    14     9   ar
    33    21    16   ar
    34    30    25   ar
