@<TRIPOS>MOLECULE
*****
 34 38 0 0 0
SMALL
GASTEIGER

@<TRIPOS>ATOM
      1 C          62.7958   86.9561   16.8127 C.2     1  UNL1        0.2252
      2 O          61.9899   87.0682   18.0728 O.2     1  UNL1       -0.2749
      3 N          63.4364   88.1766   16.2211 N.am    1  UNL1       -0.2794
      4 C          63.2711   89.5091   16.8897 C.3     1  UNL1        0.0951
      5 C          63.9117   90.7297   16.2981 C.3     1  UNL1        0.0418
      6 C          64.7177   90.6176   15.0379 C.3     1  UNL1        0.0848
      7 C          64.8829   89.2851   14.3694 C.3     1  UNL1        0.0418
      8 C          64.2423   88.0646   14.9610 C.3     1  UNL1        0.0951
      9 N          65.3583   91.8381   14.4463 N.am    1  UNL1       -0.2422
     10 C          66.1901   92.8436   15.1859 C.2     1  UNL1        0.3310
     11 O          66.5275   92.8051   16.6470 O.2     1  UNL1       -0.2501
     12 N          66.6254   93.8943   14.2079 N.am    1  UNL1       -0.1647
     13 C          66.0626   93.5382   12.8638 C.2     1  UNL1        0.0706
     14 C          66.1620   94.2070   11.5249 C.3     1  UNL1        0.0705
     15 C          65.4783   93.6049   10.3333 C.2     1  UNL1       -0.0199
     16 C          64.6952   92.3341   10.4806 C.2     1  UNL1       -0.0029
     17 C          64.5957   91.6654   11.8196 C.2     1  UNL1        0.0156
     18 C          65.2794   92.2674   13.0112 C.2     1  UNL1        0.0668
     19 N          63.2916   82.9584   14.8071 N.3     1  UNL1       -0.2689
     20 C          64.4991   83.7287   15.2532 C.3     1  UNL1        0.0729
     21 C          64.3338   85.0612   15.9217 C.3     1  UNL1        0.0264
     22 C          62.9611   85.6235   16.1442 C.3     1  UNL1        0.0795
     23 C          61.7537   84.8533   15.6981 C.3     1  UNL1        0.0264
     24 C          61.9190   83.5208   15.0296 C.3     1  UNL1        0.0729
     25 C          63.4569   81.6259   14.1385 C.3     1  UNL1        0.0993
     26 N          62.5728   78.9635    9.7647 N.pl3   1  UNL1       -0.3426
     27 C          63.0526   80.2060   10.4548 C.ar    1  UNL1        0.1251
     28 C          63.0149   80.2947   11.9517 C.ar    1  UNL1        0.0310
     29 C          63.4946   81.5372   12.6417 C.ar    1  UNL1       -0.0018
     30 C          64.0120   82.6910   11.8348 C.ar    1  UNL1        0.0179
     31 C          64.0497   82.6023   10.3379 C.ar    1  UNL1        0.1000
     32 N          63.5699   81.3598    9.6479 N.ar    1  UNL1       -0.2296
     33 H          62.2333   78.2062   10.2943 H       1  UNL1        0.1437
     34 H          62.5976   78.9054    8.7822 H       1  UNL1        0.1437
@<TRIPOS>BOND
     1    26    27    1
     2    27    28   ar
     3    28    29   ar
     4    29    25    1
     5    25    19    1
     6    19    20    1
     7    20    21    1
     8    21    22    1
     9    22     1    1
    10     1     2    2
    11     1     3   am
    12     3     4    1
    13     4     5    1
    14     5     6    1
    15     6     9    1
    16     9    10   am
    17    10    11    2
    18    10    12    1
    19    12    13    2
    20    13    14    1
    21    14    15    1
    22    15    16    2
    23    16    17    1
    24    17    18    2
    25     6     7    1
    26     7     8    1
    27    22    23    1
    28    23    24    1
    29    29    30   ar
    30    30    31   ar
    31    31    32   ar
    32    32    27   ar
    33    24    19    1
    34     8     3    1
    35    18     9    1
    36    18    13    1
    37    26    33    1
    38    26    34    1
@<TRIPOS>MOLECULE
*****
 34 38 0 0 0
SMALL
GASTEIGER

@<TRIPOS>ATOM
      1 C          62.2617   87.0340   11.1309 C.2     1  UNL1        0.2252
      2 O          62.5367   85.5665   11.2750 O.2     1  UNL1       -0.2749
      3 N          62.8741   88.0096   12.0916 N.am    1  UNL1       -0.2794
      4 C          63.7614   87.5178   13.1964 C.3     1  UNL1        0.0951
      5 C          64.3739   88.4934   14.1572 C.3     1  UNL1        0.0418
      6 C          64.0988   89.9610   14.0131 C.3     1  UNL1        0.0848
      7 C          63.2115   90.4528   12.9084 C.3     1  UNL1        0.0418
      8 C          62.5991   89.4771   11.9476 C.3     1  UNL1        0.0951
      9 N          64.7112   90.9367   14.9739 N.am    1  UNL1       -0.2422
     10 C          64.0893   91.4288   16.2471 C.2     1  UNL1        0.3310
     11 O          62.7458   91.0317   16.7831 O.2     1  UNL1       -0.2501
     12 N          65.0468   92.3878   16.8902 N.am    1  UNL1       -0.1647
     13 C          66.2605   92.4883   16.0145 C.2     1  UNL1        0.0706
     14 C          67.5277   93.2806   16.1425 C.3     1  UNL1        0.0705
     15 C          68.5875   93.1761   15.0861 C.2     1  UNL1       -0.0199
     16 C          68.3801   92.2793   13.9018 C.2     1  UNL1       -0.0029
     17 C          67.1129   91.4870   13.7738 C.2     1  UNL1        0.0156
     18 C          66.0531   91.5915   14.8301 C.2     1  UNL1        0.0668
     19 N          59.5995   88.5096    7.8164 N.3     1  UNL1       -0.2689
     20 C          60.1966   89.4834    8.7887 C.3     1  UNL1        0.0729
     21 C          61.0840   88.9915    9.8935 C.3     1  UNL1        0.0264
     22 C          61.3743   87.5258   10.0260 C.3     1  UNL1        0.0795
     23 C          60.7772   86.5520    9.0538 C.3     1  UNL1        0.0264
     24 C          59.8898   87.0439    7.9490 C.3     1  UNL1        0.0729
     25 C          58.7121   89.0014    6.7116 C.3     1  UNL1        0.0993
     26 N          62.4433   91.3138    3.9311 N.pl3   1  UNL1       -0.3426
     27 C          61.0321   91.2820    4.4387 C.ar    1  UNL1        0.1251
     28 C          60.5777   90.1576    5.3214 C.ar    1  UNL1        0.0310
     29 C          59.1665   90.1258    5.8289 C.ar    1  UNL1       -0.0018
     30 C          58.2098   91.2185    5.4538 C.ar    1  UNL1        0.0179
     31 C          58.6642   92.3429    4.5711 C.ar    1  UNL1        0.1000
     32 N          60.0754   92.3746    4.0635 N.ar    1  UNL1       -0.2296
     33 H          63.0713   90.5967    4.1773 H       1  UNL1        0.1437
     34 H          62.7415   92.0518    3.3518 H       1  UNL1        0.1437
@<TRIPOS>BOND
     1    26    27    1
     2    27    28   ar
     3    28    29   ar
     4    29    25    1
     5    25    19    1
     6    19    20    1
     7    20    21    1
     8    21    22    1
     9    22     1    1
    10     1     2    2
    11     1     3   am
    12     3     4    1
    13     4     5    1
    14     5     6    1
    15     6     9    1
    16     9    10   am
    17    10    11    2
    18    10    12    1
    19    12    13    2
    20    13    14    1
    21    14    15    1
    22    15    16    2
    23    16    17    1
    24    17    18    2
    25     6     7    1
    26     7     8    1
    27    22    23    1
    28    23    24    1
    29    29    30   ar
    30    30    31   ar
    31    31    32   ar
    32    32    27   ar
    33    24    19    1
    34     8     3    1
    35    18     9    1
    36    18    13    1
    37    26    33    1
    38    26    34    1
@<TRIPOS>MOLECULE
*****
 34 38 0 0 0
SMALL
GASTEIGER

@<TRIPOS>ATOM
      1 C          62.1289   89.0495   10.6078 C.2     1  UNL1        0.2252
      2 O          61.1188   89.3013    9.5279 O.2     1  UNL1       -0.2749
      3 N          62.2325   87.6912   11.2359 N.am    1  UNL1       -0.2794
      4 C          61.3259   86.5849   10.7841 C.3     1  UNL1        0.0951
      5 C          61.4295   85.2267   11.4122 C.3     1  UNL1        0.0418
      6 C          62.4397   84.9748   12.4922 C.3     1  UNL1        0.0848
      7 C          63.3462   86.0811   12.9439 C.3     1  UNL1        0.0418
      8 C          63.2426   87.4394   12.3158 C.3     1  UNL1        0.0951
      9 N          62.5432   83.6166   13.1203 N.am    1  UNL1       -0.2422
     10 C          62.5277   83.3218   14.5910 C.2     1  UNL1        0.3310
     11 O          62.4059   84.3335   15.6918 O.2     1  UNL1       -0.2501
     12 N          62.6554   81.8377   14.7675 N.am    1  UNL1       -0.1647
     13 C          62.7498   81.2153   13.4060 C.2     1  UNL1        0.0706
     14 C          62.8899   79.7895   12.9618 C.3     1  UNL1        0.0705
     15 C          62.9607   79.4631   11.4995 C.2     1  UNL1       -0.0199
     16 C          62.8914   80.5625   10.4814 C.2     1  UNL1       -0.0029
     17 C          62.7513   81.9883   10.9257 C.2     1  UNL1        0.0156
     18 C          62.6805   82.3147   12.3880 C.2     1  UNL1        0.0668
     19 N          64.8486   92.3685   11.9631 N.3     1  UNL1       -0.2689
     20 C          64.4334   91.2978   12.9282 C.3     1  UNL1        0.0729
     21 C          63.5268   90.1914   12.4764 C.3     1  UNL1        0.0264
     22 C          63.0355   90.1558   11.0596 C.3     1  UNL1        0.0795
     23 C          63.4507   91.2264   10.0945 C.3     1  UNL1        0.0264
     24 C          64.3573   92.3328   10.5463 C.3     1  UNL1        0.0729
     25 C          65.7552   93.4748   12.4149 C.3     1  UNL1        0.0993
     26 N          68.2857   94.3152    7.9550 N.pl3   1  UNL1       -0.3426
     27 C          67.6024   94.8451    9.1807 C.ar    1  UNL1        0.1251
     28 C          67.0204   93.8950   10.1850 C.ar    1  UNL1        0.0310
     29 C          66.3371   94.4250   11.4107 C.ar    1  UNL1       -0.0018
     30 C          66.2357   95.9051   11.6320 C.ar    1  UNL1        0.0179
     31 C          66.8176   96.8552   10.6277 C.ar    1  UNL1        0.1000
     32 N          67.5010   96.3252    9.4021 N.ar    1  UNL1       -0.2296
     33 H          68.3523   93.3438    7.8097 H       1  UNL1        0.1437
     34 H          68.6676   94.9389    7.2959 H       1  UNL1        0.1437
@<TRIPOS>BOND
     1    26    27    1
     2    27    28   ar
     3    28    29   ar
     4    29    25    1
     5    25    19    1
     6    19    20    1
     7    20    21    1
     8    21    22    1
     9    22     1    1
    10     1     2    2
    11     1     3   am
    12     3     4    1
    13     4     5    1
    14     5     6    1
    15     6     9    1
    16     9    10   am
    17    10    11    2
    18    10    12    1
    19    12    13    2
    20    13    14    1
    21    14    15    1
    22    15    16    2
    23    16    17    1
    24    17    18    2
    25     6     7    1
    26     7     8    1
    27    22    23    1
    28    23    24    1
    29    29    30   ar
    30    30    31   ar
    31    31    32   ar
    32    32    27   ar
    33    24    19    1
    34     8     3    1
    35    18     9    1
    36    18    13    1
    37    26    33    1
    38    26    34    1
@<TRIPOS>MOLECULE
*****
 34 38 0 0 0
SMALL
GASTEIGER

@<TRIPOS>ATOM
      1 C          62.0586   89.3278   11.9651 C.2     1  UNL1        0.2252
      2 O          60.9805   90.0145   11.1803 O.2     1  UNL1       -0.2749
      3 N          62.2677   87.8497   11.8180 N.am    1  UNL1       -0.2794
      4 C          61.3986   87.0584   10.8860 C.3     1  UNL1        0.0951
      5 C          61.6077   85.5804   10.7388 C.3     1  UNL1        0.0418
      6 C          62.6859   84.8936   11.5237 C.3     1  UNL1        0.0848
      7 C          63.5548   85.6849   12.4556 C.3     1  UNL1        0.0418
      8 C          63.3458   87.1629   12.6028 C.3     1  UNL1        0.0951
      9 N          62.8949   83.4155   11.3766 N.am    1  UNL1       -0.2422
     10 C          63.5681   82.7307   10.2242 C.2     1  UNL1        0.3310
     11 O          64.1504   83.4036    9.0167 O.2     1  UNL1       -0.2501
     12 N          63.5567   81.2547   10.4915 N.am    1  UNL1       -0.1647
     13 C          62.8765   81.0274   11.8089 C.2     1  UNL1        0.0706
     14 C          62.5768   79.7768   12.5811 C.3     1  UNL1        0.0705
     15 C          61.8680   79.8618   13.9003 C.2     1  UNL1       -0.0199
     16 C          61.4590   81.1972   14.4473 C.2     1  UNL1       -0.0029
     17 C          61.7587   82.4478   13.6752 C.2     1  UNL1        0.0156
     18 C          62.4675   82.3628   12.3559 C.2     1  UNL1        0.0668
     19 N          64.6658   91.7016   14.7611 N.3     1  UNL1       -0.2689
     20 C          64.7054   91.9732   13.2863 C.3     1  UNL1        0.0729
     21 C          63.8364   91.1819   12.3543 C.3     1  UNL1        0.0264
     22 C          62.9277   90.1190   12.8971 C.3     1  UNL1        0.0795
     23 C          62.8880   89.8474   14.3718 C.3     1  UNL1        0.0264
     24 C          63.7570   90.6387   15.3037 C.3     1  UNL1        0.0729
     25 C          65.5348   92.4929   15.6930 C.3     1  UNL1        0.0993
     26 N          69.6717   91.4774   12.7173 N.pl3   1  UNL1       -0.3426
     27 C          69.0566   92.1815   13.8904 C.ar    1  UNL1        0.1251
     28 C          67.6032   91.9852   14.2052 C.ar    1  UNL1        0.0310
     29 C          66.9882   92.6892   15.3783 C.ar    1  UNL1       -0.0018
     30 C          67.8266   93.5896   16.2365 C.ar    1  UNL1        0.0179
     31 C          69.2799   93.7858   15.9216 C.ar    1  UNL1        0.1000
     32 N          69.8950   93.0818   14.7486 N.ar    1  UNL1       -0.2296
     33 H          69.1215   90.8865   12.1540 H       1  UNL1        0.1437
     34 H          70.6256   91.6063   12.5107 H       1  UNL1        0.1437
@<TRIPOS>BOND
     1    26    27    1
     2    27    28   ar
     3    28    29   ar
     4    29    25    1
     5    25    19    1
     6    19    20    1
     7    20    21    1
     8    21    22    1
     9    22     1    1
    10     1     2    2
    11     1     3   am
    12     3     4    1
    13     4     5    1
    14     5     6    1
    15     6     9    1
    16     9    10   am
    17    10    11    2
    18    10    12    1
    19    12    13    2
    20    13    14    1
    21    14    15    1
    22    15    16    2
    23    16    17    1
    24    17    18    2
    25     6     7    1
    26     7     8    1
    27    22    23    1
    28    23    24    1
    29    29    30   ar
    30    30    31   ar
    31    31    32   ar
    32    32    27   ar
    33    24    19    1
    34     8     3    1
    35    18     9    1
    36    18    13    1
    37    26    33    1
    38    26    34    1
@<TRIPOS>MOLECULE
*****
 34 38 0 0 0
SMALL
GASTEIGER

@<TRIPOS>ATOM
      1 C          62.2566   89.0203   10.5663 C.2     1  UNL1        0.2252
      2 O          61.3565   89.2934    9.3979 O.2     1  UNL1       -0.2749
      3 N          62.3107   87.6466   11.1663 N.am    1  UNL1       -0.2794
      4 C          61.4648   86.5460   10.5979 C.3     1  UNL1        0.0951
      5 C          61.5189   85.1723   11.1979 C.3     1  UNL1        0.0418
      6 C          62.4191   84.8991   12.3664 C.3     1  UNL1        0.0848
      7 C          63.2649   85.9997   12.9347 C.3     1  UNL1        0.0418
      8 C          63.2108   87.3734   12.3347 C.3     1  UNL1        0.0951
      9 N          62.4732   83.5254   12.9663 N.am    1  UNL1       -0.2422
     10 C          62.3757   83.1966   14.4266 C.2     1  UNL1        0.3310
     11 O          62.2069   84.1838   15.5433 O.2     1  UNL1       -0.2501
     12 N          62.4766   81.7073   14.5741 N.am    1  UNL1       -0.1647
     13 C          62.6364   81.1157   13.2050 C.2     1  UNL1        0.0706
     14 C          62.7836   79.6989   12.7348 C.3     1  UNL1        0.0705
     15 C          62.9287   79.4059   11.2709 C.2     1  UNL1       -0.0199
     16 C          62.9266   80.5295   10.2772 C.2     1  UNL1       -0.0029
     17 C          62.7794   81.9463   10.7475 C.2     1  UNL1        0.0156
     18 C          62.6343   82.2393   12.2113 C.2     1  UNL1        0.0668
     19 N          64.7944   92.3220   12.2717 N.3     1  UNL1       -0.2689
     20 C          64.4902   92.2921   10.8030 C.3     1  UNL1        0.0729
     21 C          63.6443   91.1915   10.2346 C.3     1  UNL1        0.0264
     22 C          63.1025   90.1209   11.1348 C.3     1  UNL1        0.0795
     23 C          63.4067   90.1507   12.6033 C.3     1  UNL1        0.0264
     24 C          64.2527   91.2513   13.1717 C.3     1  UNL1        0.0729
     25 C          65.6404   93.4225   12.8401 C.3     1  UNL1        0.0993
     26 N          70.5182   92.1556   14.1058 N.pl3   1  UNL1       -0.3426
     27 C          69.1119   92.4790   14.5157 C.ar    1  UNL1        0.1251
     28 C          68.0792   92.7891   13.4729 C.ar    1  UNL1        0.0310
     29 C          66.6730   93.1125   13.8829 C.ar    1  UNL1       -0.0018
     30 C          66.2995   93.1257   15.3356 C.ar    1  UNL1        0.0179
     31 C          67.3322   92.8157   16.3783 C.ar    1  UNL1        0.1000
     32 N          68.7384   92.4923   15.9684 N.ar    1  UNL1       -0.2296
     33 H          70.7634   92.1469   13.1524 H       1  UNL1        0.1437
     34 H          71.1959   91.9521   14.7902 H       1  UNL1        0.1437
@<TRIPOS>BOND
     1    26    27    1
     2    27    28   ar
     3    28    29   ar
     4    29    25    1
     5    25    19    1
     6    19    20    1
     7    20    21    1
     8    21    22    1
     9    22     1    1
    10     1     2    2
    11     1     3   am
    12     3     4    1
    13     4     5    1
    14     5     6    1
    15     6     9    1
    16     9    10   am
    17    10    11    2
    18    10    12    1
    19    12    13    2
    20    13    14    1
    21    14    15    1
    22    15    16    2
    23    16    17    1
    24    17    18    2
    25     6     7    1
    26     7     8    1
    27    22    23    1
    28    23    24    1
    29    29    30   ar
    30    30    31   ar
    31    31    32   ar
    32    32    27   ar
    33    24    19    1
    34     8     3    1
    35    18     9    1
    36    18    13    1
    37    26    33    1
    38    26    34    1
@<TRIPOS>MOLECULE
*****
 34 38 0 0 0
SMALL
GASTEIGER

@<TRIPOS>ATOM
      1 C          64.3382   90.4768   15.4465 C.2     1  UNL1        0.2252
      2 O          63.8764   91.1697   16.6941 O.2     1  UNL1       -0.2749
      3 N          64.0351   89.0223   15.2405 N.am    1  UNL1       -0.2794
      4 C          63.2701   88.2607   16.2821 C.3     1  UNL1        0.0951
      5 C          62.9670   86.8062   16.0762 C.3     1  UNL1        0.0418
      6 C          63.4289   86.1131   14.8285 C.3     1  UNL1        0.0848
      7 C          64.1938   86.8747   13.7870 C.3     1  UNL1        0.0418
      8 C          64.4969   88.3292   13.9930 C.3     1  UNL1        0.0951
      9 N          63.1257   84.6586   14.6225 N.am    1  UNL1       -0.2422
     10 C          62.6720   83.6944   15.6783 C.2     1  UNL1        0.3310
     11 O          62.4417   84.0155   17.1253 O.2     1  UNL1       -0.2501
     12 N          62.4890   82.3528   15.0328 N.am    1  UNL1       -0.1647
     13 C          62.8296   82.4878   13.5783 C.2     1  UNL1        0.0706
     14 C          62.8322   81.4972   12.4519 C.3     1  UNL1        0.0705
     15 C          63.2284   81.9317   11.0720 C.2     1  UNL1       -0.0199
     16 C          63.6219   83.3568   10.8184 C.2     1  UNL1       -0.0029
     17 C          63.6193   84.3474   11.9448 C.2     1  UNL1        0.0156
     18 C          63.2231   83.9129   13.3247 C.2     1  UNL1        0.0668
     19 N          66.6331   92.7614   12.3218 N.3     1  UNL1       -0.2689
     20 C          65.2070   92.3706   12.0689 C.3     1  UNL1        0.0729
     21 C          64.4421   91.6091   13.1105 C.3     1  UNL1        0.0264
     22 C          65.1032   91.2383   14.4049 C.3     1  UNL1        0.0795
     23 C          66.5291   91.6290   14.6578 C.3     1  UNL1        0.0264
     24 C          67.2941   92.3905   13.6162 C.3     1  UNL1        0.0729
     25 C          67.3980   93.5229   11.2802 C.3     1  UNL1        0.0993
     26 N          66.1339   95.7600    6.7638 N.pl3   1  UNL1       -0.3426
     27 C          66.0996   95.7506    8.2634 C.ar    1  UNL1        0.1251
     28 C          66.7660   94.6414    9.0220 C.ar    1  UNL1        0.0310
     29 C          66.7316   94.6321   10.5216 C.ar    1  UNL1       -0.0018
     30 C          66.0309   95.7321   11.2626 C.ar    1  UNL1        0.0179
     31 C          65.3646   96.8414   10.5039 C.ar    1  UNL1        0.1000
     32 N          65.3989   96.8506    9.0044 N.ar    1  UNL1       -0.2296
     33 H          66.5938   95.0380    6.2774 H       1  UNL1        0.1437
     34 H          65.6966   96.4880    6.2659 H       1  UNL1        0.1437
@<TRIPOS>BOND
     1    26    27    1
     2    27    28   ar
     3    28    29   ar
     4    29    25    1
     5    25    19    1
     6    19    20    1
     7    20    21    1
     8    21    22    1
     9    22     1    1
    10     1     2    2
    11     1     3   am
    12     3     4    1
    13     4     5    1
    14     5     6    1
    15     6     9    1
    16     9    10   am
    17    10    11    2
    18    10    12    1
    19    12    13    2
    20    13    14    1
    21    14    15    1
    22    15    16    2
    23    16    17    1
    24    17    18    2
    25     6     7    1
    26     7     8    1
    27    22    23    1
    28    23    24    1
    29    29    30   ar
    30    30    31   ar
    31    31    32   ar
    32    32    27   ar
    33    24    19    1
    34     8     3    1
    35    18     9    1
    36    18    13    1
    37    26    33    1
    38    26    34    1
@<TRIPOS>MOLECULE
*****
 34 38 0 0 0
SMALL
GASTEIGER

@<TRIPOS>ATOM
      1 C          63.8576   89.8807   15.9634 C.2     1  UNL1        0.2252
      2 O          63.3898   90.2754   17.3328 O.2     1  UNL1       -0.2749
      3 N          63.7508   88.4526   15.5171 N.am    1  UNL1       -0.2794
      4 C          63.1762   87.4193   16.4402 C.3     1  UNL1        0.0951
      5 C          63.0695   85.9912   15.9939 C.3     1  UNL1        0.0418
      6 C          63.5373   85.5964   14.6244 C.3     1  UNL1        0.0848
      7 C          64.1118   86.6298   13.7014 C.3     1  UNL1        0.0418
      8 C          64.2186   88.0578   14.1477 C.3     1  UNL1        0.0951
      9 N          63.4305   84.1684   14.1781 N.am    1  UNL1       -0.2422
     10 C          63.1825   82.9839   15.0644 C.2     1  UNL1        0.3310
     11 O          62.9976   83.0194   16.5525 O.2     1  UNL1       -0.2501
     12 N          63.1517   81.7575   14.2011 N.am    1  UNL1       -0.1647
     13 C          63.3807   82.1841   12.7814 C.2     1  UNL1        0.0706
     14 C          63.4546   81.4083   11.4998 C.3     1  UNL1        0.0705
     15 C          63.7009   82.1225   10.2040 C.2     1  UNL1       -0.0199
     16 C          63.8732   83.6125   10.1897 C.2     1  UNL1       -0.0029
     17 C          63.7993   84.3883   11.4713 C.2     1  UNL1        0.0156
     18 C          63.5531   83.6741   12.7672 C.2     1  UNL1        0.0668
     19 N          65.5813   92.9806   13.1941 N.3     1  UNL1       -0.2689
     20 C          64.5178   92.0439   12.7024 C.3     1  UNL1        0.0729
     21 C          63.9432   91.0106   13.6255 C.3     1  UNL1        0.0264
     22 C          64.4322   90.9140   15.0403 C.3     1  UNL1        0.0795
     23 C          65.4956   91.8506   15.5320 C.3     1  UNL1        0.0264
     24 C          66.0702   92.8839   14.6090 C.3     1  UNL1        0.0729
     25 C          66.1559   94.0139   12.2710 C.3     1  UNL1        0.0993
     26 N          67.5516   94.9430    7.3528 N.pl3   1  UNL1       -0.3426
     27 C          67.5652   94.0545    8.5614 C.ar    1  UNL1        0.1251
     28 C          66.8537   94.4785    9.8120 C.ar    1  UNL1        0.0310
     29 C          66.8673   93.5899   11.0204 C.ar    1  UNL1       -0.0018
     30 C          67.5923   92.2774   10.9782 C.ar    1  UNL1        0.0179
     31 C          68.3037   91.8535    9.7276 C.ar    1  UNL1        0.1000
     32 N          68.2901   92.7421    8.5191 N.ar    1  UNL1       -0.2296
     33 H          67.0758   95.8045    7.3805 H       1  UNL1        0.1437
     34 H          68.0186   94.6647    6.5320 H       1  UNL1        0.1437
@<TRIPOS>BOND
     1    26    27    1
     2    27    28   ar
     3    28    29   ar
     4    29    25    1
     5    25    19    1
     6    19    20    1
     7    20    21    1
     8    21    22    1
     9    22     1    1
    10     1     2    2
    11     1     3   am
    12     3     4    1
    13     4     5    1
    14     5     6    1
    15     6     9    1
    16     9    10   am
    17    10    11    2
    18    10    12    1
    19    12    13    2
    20    13    14    1
    21    14    15    1
    22    15    16    2
    23    16    17    1
    24    17    18    2
    25     6     7    1
    26     7     8    1
    27    22    23    1
    28    23    24    1
    29    29    30   ar
    30    30    31   ar
    31    31    32   ar
    32    32    27   ar
    33    24    19    1
    34     8     3    1
    35    18     9    1
    36    18    13    1
    37    26    33    1
    38    26    34    1
@<TRIPOS>MOLECULE
*****
 34 38 0 0 0
SMALL
GASTEIGER

@<TRIPOS>ATOM
      1 C          61.9661   88.2656   10.8765 C.2     1  UNL1        0.2252
      2 O          60.8736   88.9057   10.0724 O.2     1  UNL1       -0.2749
      3 N          62.7092   89.0672   11.9038 N.am    1  UNL1       -0.2794
      4 C          62.3597   90.5087   12.1269 C.3     1  UNL1        0.0951
      5 C          63.1028   91.3103   13.1543 C.3     1  UNL1        0.0418
      6 C          64.1954   90.6702   13.9585 C.3     1  UNL1        0.0848
      7 C          64.5448   89.2287   13.7353 C.3     1  UNL1        0.0418
      8 C          63.8017   88.4272   12.7079 C.3     1  UNL1        0.0951
      9 N          64.9385   91.4718   14.9858 N.am    1  UNL1       -0.2422
     10 C          64.3843   91.9641   16.2898 C.2     1  UNL1        0.3310
     11 O          62.9899   91.7412   16.7956 O.2     1  UNL1       -0.2501
     12 N          65.4696   92.7183   16.9994 N.am    1  UNL1       -0.1647
     13 C          66.6944   92.6921   16.1338 C.2     1  UNL1        0.0706
     14 C          68.0661   93.2703   16.3181 C.3     1  UNL1        0.0705
     15 C          69.1096   93.0780   15.2579 C.2     1  UNL1       -0.0199
     16 C          68.7814   92.3076   14.0134 C.2     1  UNL1       -0.0029
     17 C          67.4097   91.7295   13.8291 C.2     1  UNL1        0.0156
     18 C          66.3661   91.9217   14.8893 C.2     1  UNL1        0.0668
     19 N          63.0146   83.9410   10.2070 N.3     1  UNL1       -0.2689
     20 C          62.9863   84.8939    9.0488 C.3     1  UNL1        0.0729
     21 C          62.6368   86.3354    9.2720 C.3     1  UNL1        0.0264
     22 C          62.3156   86.8241   10.6533 C.3     1  UNL1        0.0795
     23 C          62.3439   85.8713   11.8115 C.3     1  UNL1        0.0264
     24 C          62.6934   84.4297   11.5883 C.3     1  UNL1        0.0729
     25 C          63.3641   82.4995    9.9838 C.3     1  UNL1        0.0993
     26 N          62.1604   81.3047   14.8954 N.pl3   1  UNL1       -0.3426
     27 C          62.4221   80.8780   13.4814 C.ar    1  UNL1        0.1251
     28 C          62.7622   81.9021   12.4396 C.ar    1  UNL1        0.0310
     29 C          63.0239   81.4753   11.0256 C.ar    1  UNL1       -0.0018
     30 C          62.9454   80.0243   10.6534 C.ar    1  UNL1        0.0179
     31 C          62.6052   79.0002   11.6952 C.ar    1  UNL1        0.1000
     32 N          62.3436   79.4270   13.1092 N.ar    1  UNL1       -0.2296
     33 H          62.2119   82.2570   15.1398 H       1  UNL1        0.1437
     34 H          61.9371   80.6325   15.5792 H       1  UNL1        0.1437
@<TRIPOS>BOND
     1    26    27    1
     2    27    28   ar
     3    28    29   ar
     4    29    25    1
     5    25    19    1
     6    19    20    1
     7    20    21    1
     8    21    22    1
     9    22     1    1
    10     1     2    2
    11     1     3   am
    12     3     4    1
    13     4     5    1
    14     5     6    1
    15     6     9    1
    16     9    10   am
    17    10    11    2
    18    10    12    1
    19    12    13    2
    20    13    14    1
    21    14    15    1
    22    15    16    2
    23    16    17    1
    24    17    18    2
    25     6     7    1
    26     7     8    1
    27    22    23    1
    28    23    24    1
    29    29    30   ar
    30    30    31   ar
    31    31    32   ar
    32    32    27   ar
    33    24    19    1
    34     8     3    1
    35    18     9    1
    36    18    13    1
    37    26    33    1
    38    26    34    1
@<TRIPOS>MOLECULE
*****
 34 38 0 0 0
SMALL
GASTEIGER

@<TRIPOS>ATOM
      1 C          63.3134   86.6679   16.2429 C.2     1  UNL1        0.2252
      2 O          63.1636   86.9593   17.7067 O.2     1  UNL1       -0.2749
      3 N          63.5551   87.7889   15.2760 N.am    1  UNL1       -0.2794
      4 C          63.6470   89.2012   15.7729 C.3     1  UNL1        0.0951
      5 C          63.8887   90.3223   14.8060 C.3     1  UNL1        0.0418
      6 C          64.0384   90.0310   13.3421 C.3     1  UNL1        0.0848
      7 C          63.9465   88.6187   12.8453 C.3     1  UNL1        0.0418
      8 C          63.7048   87.4976   13.8122 C.3     1  UNL1        0.0951
      9 N          64.2801   91.1520   12.3752 N.am    1  UNL1       -0.2422
     10 C          63.7151   91.2586   10.9898 C.2     1  UNL1        0.3310
     11 O          62.8092   90.2629   10.3280 O.2     1  UNL1       -0.2501
     12 N          64.2151   92.5357   10.3824 N.am    1  UNL1       -0.1647
     13 C          65.0890   93.2184   11.3924 C.2     1  UNL1        0.0706
     14 C          65.8534   94.5083   11.3497 C.3     1  UNL1        0.0705
     15 C          66.6580   94.9430   12.5386 C.2     1  UNL1       -0.0199
     16 C          66.6982   94.0878   13.7703 C.2     1  UNL1       -0.0029
     17 C          65.9338   92.7979   13.8130 C.2     1  UNL1        0.0156
     18 C          65.1292   92.3632   12.6241 C.2     1  UNL1        0.0668
     19 N          63.0377   82.4310   14.7523 N.3     1  UNL1       -0.2689
     20 C          61.7891   83.1875   15.0972 C.3     1  UNL1        0.0729
     21 C          61.8810   84.5998   15.5941 C.3     1  UNL1        0.0264
     22 C          63.2215   85.2556   15.7460 C.3     1  UNL1        0.0795
     23 C          64.4700   84.4992   15.4011 C.3     1  UNL1        0.0264
     24 C          64.3781   83.0868   14.9042 C.3     1  UNL1        0.0729
     25 C          62.9458   81.0187   14.2554 C.3     1  UNL1        0.0993
     26 N          62.4698   77.6818   10.3008 N.pl3   1  UNL1       -0.3426
     27 C          62.7298   79.0705   10.8046 C.ar    1  UNL1        0.1251
     28 C          62.7078   79.3503   12.2781 C.ar    1  UNL1        0.0310
     29 C          62.9678   80.7390   12.7819 C.ar    1  UNL1       -0.0018
     30 C          63.2497   81.8481   11.8121 C.ar    1  UNL1        0.0179
     31 C          63.2717   81.5684   10.3386 C.ar    1  UNL1        0.1000
     32 N          63.0117   80.1796    9.8348 N.ar    1  UNL1       -0.2296
     33 H          62.2847   76.9538   10.9373 H       1  UNL1        0.1437
     34 H          62.4842   77.4982    9.3337 H       1  UNL1        0.1437
@<TRIPOS>BOND
     1    26    27    1
     2    27    28   ar
     3    28    29   ar
     4    29    25    1
     5    25    19    1
     6    19    20    1
     7    20    21    1
     8    21    22    1
     9    22     1    1
    10     1     2    2
    11     1     3   am
    12     3     4    1
    13     4     5    1
    14     5     6    1
    15     6     9    1
    16     9    10   am
    17    10    11    2
    18    10    12    1
    19    12    13    2
    20    13    14    1
    21    14    15    1
    22    15    16    2
    23    16    17    1
    24    17    18    2
    25     6     7    1
    26     7     8    1
    27    22    23    1
    28    23    24    1
    29    29    30   ar
    30    30    31   ar
    31    31    32   ar
    32    32    27   ar
    33    24    19    1
    34     8     3    1
    35    18     9    1
    36    18    13    1
    37    26    33    1
    38    26    34    1
