@<TRIPOS>MOLECULE
*****
 38 40 0 0 0
SMALL
GASTEIGER

@<TRIPOS>ATOM
      1 C          63.9184   90.5039   14.2482 C.ar    1  UNL1        0.0734
      2 C          65.0418   91.4852   14.0891 C.ar    1  UNL1        0.0085
      3 C          64.9280   92.1032   12.7272 C.ar    1  UNL1        0.0080
      4 S          63.7343   91.5041   12.0445 S.2     1  UNL1       -0.0764
      5 C          63.1104   90.5156   12.9846 C.ar    1  UNL1        0.0860
      6 N          63.8310   84.9428   14.3678 N.am    1  UNL1       -0.2763
      7 C          64.0209   86.1819   13.5440 C.3     1  UNL1        0.1149
      8 C          63.9438   87.6152   13.9793 C.3     1  UNL1        0.1152
      9 N          63.6576   88.1636   15.3458 N.am    1  UNL1       -0.2738
     10 C          63.6502   89.6593   15.4585 C.2     1  UNL1        0.2508
     11 O          63.3745   90.3104   16.7814 O.2     1  UNL1       -0.2698
     12 C          63.3780   87.4140   16.6146 C.3     1  UNL1        0.1033
     13 C          63.3154   85.9308   16.8302 C.3     1  UNL1        0.1067
     14 C          63.5169   84.8311   15.8304 C.2     1  UNL1        0.2275
     15 O          63.3874   83.4350   16.3634 O.2     1  UNL1       -0.2748
     16 C          63.9739   83.6436   13.6317 C.3     1  UNL1        0.1107
     17 C          62.8213   83.0985   12.8416 C.3     1  UNL1        0.0939
     18 C          61.4756   81.3454   14.2075 C.3     1  UNL1        0.0897
     19 N          62.3703   81.6835   13.0519 N.3     1  UNL1       -0.2688
     20 C          62.8139   80.6066   12.1067 C.3     1  UNL1        0.0897
     21 N          61.8923   89.6848   12.7092 N.am    1  UNL1       -0.2629
     22 C          61.7321   89.0055   11.3815 C.2     1  UNL1        0.3085
     23 O          62.7901   89.1571   10.3290 O.2     1  UNL1       -0.2521
     24 N          60.5139   88.1746   11.1061 N.am    1  UNL1       -0.2673
     25 H          61.1979   89.5853   13.4000 H       1  UNL1        0.1569
     26 H          59.8195   88.0751   11.7969 H       1  UNL1        0.1564
     27 C          60.3538   87.4953    9.7784 C.ar    1  UNL1        0.0630
     28 C          59.2141   87.8688    8.8775 C.ar    1  UNL1        0.0156
     29 C          59.0539   87.1896    7.5498 C.ar    1  UNL1        0.0022
     30 C          60.0335   86.1368    7.1228 C.ar    1  UNL1        0.0123
     31 C          61.1732   85.7633    8.0238 C.ar    1  UNL1        0.0694
     32 CL         62.1527   84.7106    7.5969 Cl      1  UNL1       -0.0813
     33 C          61.3334   86.4426    9.3515 C.ar    1  UNL1        0.0816
     34 CL         62.4730   86.0691   10.2524 Cl      1  UNL1       -0.0801
     35 C          65.8466   93.1387   12.1494 C.3     1  UNL1        0.0246
     36 C          66.3885   93.4222   13.5190 C.3     1  UNL1        0.0049
     37 C          65.3047   92.8553   10.7797 C.3     1  UNL1        0.0049
     38 C          66.7653   94.1743   11.5716 C.3     1  UNL1        0.0049
@<TRIPOS>BOND
     1    18    19    1
     2    19    20    1
     3    19    17    1
     4    17    16    1
     5    16     6    1
     6     6     7    1
     7     7     8    1
     8     8     9    1
     9     9    10   am
    10    10    11    2
    11    10     1    1
    12     1     2   ar
    13     2     3   ar
    14     3    35    1
    15    35    36    1
    16    35    37    1
    17    35    38    1
    18     3     4   ar
    19     4     5   ar
    20     5    21    1
    21    21    22   am
    22    22    23    2
    23    22    24   am
    24    24    27    1
    25    27    28   ar
    26    28    29   ar
    27    29    30   ar
    28    30    31   ar
    29    31    32    1
    30    31    33   ar
    31    33    34    1
    32     9    12    1
    33    12    13    1
    34    13    14    1
    35    14    15    2
    36    14     6   am
    37     5     1   ar
    38    33    27   ar
    39    21    25    1
    40    24    26    1
@<TRIPOS>MOLECULE
*****
 38 40 0 0 0
SMALL
GASTEIGER

@<TRIPOS>ATOM
      1 C          62.9041   88.8080   12.4544 C.ar    1  UNL1        0.0734
      2 C          62.0622   89.6126   11.5087 C.ar    1  UNL1        0.0085
      3 C          61.4775   88.6739   10.4954 C.ar    1  UNL1        0.0080
      4 S          61.9580   87.2892   10.8146 S.2     1  UNL1       -0.0764
      5 C          62.8397   87.3722   12.0253 C.ar    1  UNL1        0.0860
      6 N          65.9490   93.4639   12.4691 N.am    1  UNL1       -0.2763
      7 C          65.0642   92.5401   11.6855 C.3     1  UNL1        0.1149
      8 C          64.4001   91.2737   12.1379 C.3     1  UNL1        0.1152
      9 N          64.4565   90.6180   13.4859 N.am    1  UNL1       -0.2738
     10 C          63.6751   89.3451   13.6236 C.2     1  UNL1        0.2508
     11 O          63.6645   88.6092   14.9307 O.2     1  UNL1       -0.2698
     12 C          65.1911   91.0668   14.7142 C.3     1  UNL1        0.1033
     13 C          66.0507   92.2823   14.8980 C.3     1  UNL1        0.1067
     14 C          66.3880   93.3490   13.8989 C.2     1  UNL1        0.2275
     15 O          67.2826   94.4461   14.3951 O.2     1  UNL1       -0.2748
     16 C          66.4626   94.6605   11.7247 C.3     1  UNL1        0.1107
     17 C          66.0388   94.8999   10.3059 C.3     1  UNL1        0.0939
     18 C          67.1409   95.9621    8.2066 C.3     1  UNL1        0.0897
     19 N          67.0514   94.8424    9.2008 N.3     1  UNL1       -0.2688
     20 C          67.9745   93.6654    9.0898 C.3     1  UNL1        0.0897
     21 N          63.5348   86.2213   12.6902 N.am    1  UNL1       -0.2629
     22 C          63.0680   84.8177   12.4408 C.2     1  UNL1        0.3085
     23 O          61.9061   84.5651   11.5265 O.2     1  UNL1       -0.2521
     24 N          63.7632   83.6668   13.1057 N.am    1  UNL1       -0.2673
     25 H          64.2974   86.3871   13.2903 H       1  UNL1        0.1569
     26 H          64.5258   83.8325   13.7058 H       1  UNL1        0.1564
     27 C          63.2964   82.2632   12.8563 C.ar    1  UNL1        0.0630
     28 C          62.6959   81.4628   13.9737 C.ar    1  UNL1        0.0156
     29 C          62.2291   80.0593   13.7244 C.ar    1  UNL1        0.0022
     30 C          62.3628   79.4561   12.3574 C.ar    1  UNL1        0.0123
     31 C          62.9634   80.2566   11.2400 C.ar    1  UNL1        0.0694
     32 CL         63.0971   79.6535    9.8731 Cl      1  UNL1       -0.0813
     33 C          63.4302   81.6602   11.4894 C.ar    1  UNL1        0.0816
     34 CL         64.0307   82.4606   10.3720 Cl      1  UNL1       -0.0801
     35 C          60.5715   89.0533    9.3618 C.3     1  UNL1        0.0246
     36 C          60.8236   87.7235    8.7152 C.3     1  UNL1        0.0049
     37 C          60.3193   90.3831   10.0084 C.3     1  UNL1        0.0049
     38 C          59.6653   89.4326    8.2282 C.3     1  UNL1        0.0049
@<TRIPOS>BOND
     1    18    19    1
     2    19    20    1
     3    19    17    1
     4    17    16    1
     5    16     6    1
     6     6     7    1
     7     7     8    1
     8     8     9    1
     9     9    10   am
    10    10    11    2
    11    10     1    1
    12     1     2   ar
    13     2     3   ar
    14     3    35    1
    15    35    36    1
    16    35    37    1
    17    35    38    1
    18     3     4   ar
    19     4     5   ar
    20     5    21    1
    21    21    22   am
    22    22    23    2
    23    22    24   am
    24    24    27    1
    25    27    28   ar
    26    28    29   ar
    27    29    30   ar
    28    30    31   ar
    29    31    32    1
    30    31    33   ar
    31    33    34    1
    32     9    12    1
    33    12    13    1
    34    13    14    1
    35    14    15    2
    36    14     6   am
    37     5     1   ar
    38    33    27   ar
    39    21    25    1
    40    24    26    1
@<TRIPOS>MOLECULE
*****
 38 40 0 0 0
SMALL
GASTEIGER

@<TRIPOS>ATOM
      1 C          64.2739   91.2182   13.9807 C.ar    1  UNL1        0.0734
      2 C          65.5016   92.0210   13.6666 C.ar    1  UNL1        0.0085
      3 C          65.5414   92.2460   12.1841 C.ar    1  UNL1        0.0080
      4 S          64.3385   91.5825   11.5820 S.2     1  UNL1       -0.0764
      5 C          63.5551   90.9473   12.6924 C.ar    1  UNL1        0.0860
      6 N          63.5149   85.9372   15.5565 N.am    1  UNL1       -0.2763
      7 C          63.8964   86.8801   14.4539 C.3     1  UNL1        0.1149
      8 C          63.9679   88.3779   14.4872 C.3     1  UNL1        0.1152
      9 N          63.6756   89.3031   15.6311 N.am    1  UNL1       -0.2738
     10 C          63.8411   90.7659   15.3438 C.2     1  UNL1        0.2508
     11 O          63.5739   91.7765   16.4196 O.2     1  UNL1       -0.2698
     12 C          63.2396   88.9587   17.0245 C.3     1  UNL1        0.1033
     13 C          62.9882   87.6042   17.6179 C.3     1  UNL1        0.1067
     14 C          63.1107   86.2596   16.9647 C.2     1  UNL1        0.2275
     15 O          62.7862   85.0814   17.8344 O.2     1  UNL1       -0.2748
     16 C          63.5411   84.4794   15.2044 C.3     1  UNL1        0.1107
     17 C          62.9922   84.0158   13.8877 C.3     1  UNL1        0.0939
     18 C          63.9262   81.9545   12.6115 C.3     1  UNL1        0.0897
     19 N          62.9393   82.5505   13.5712 N.3     1  UNL1       -0.2688
     20 C          61.8998   81.6813   14.2143 C.3     1  UNL1        0.0897
     21 N          62.2773   90.1764   12.5409 N.am    1  UNL1       -0.2629
     22 C          61.9473   89.5212   11.2326 C.2     1  UNL1        0.3085
     23 O          62.8950   89.6368   10.0757 O.2     1  UNL1       -0.2521
     24 N          60.6694   88.7503   11.0811 N.am    1  UNL1       -0.2673
     25 H          61.6553   90.1006   13.3002 H       1  UNL1        0.1569
     26 H          60.0473   88.6744   11.8404 H       1  UNL1        0.1564
     27 C          60.3393   88.0950    9.7728 C.ar    1  UNL1        0.0630
     28 C          60.5339   86.6174    9.6039 C.ar    1  UNL1        0.0156
     29 C          60.2039   85.9621    8.2956 C.ar    1  UNL1        0.0022
     30 C          59.6792   86.7845    7.1561 C.ar    1  UNL1        0.0123
     31 C          59.4846   88.2623    7.3251 C.ar    1  UNL1        0.0694
     32 CL         58.9599   89.0847    6.1856 Cl      1  UNL1       -0.0813
     33 C          59.8147   88.9175    8.6334 C.ar    1  UNL1        0.0816
     34 CL         59.6201   90.3952    8.8023 Cl      1  UNL1       -0.0801
     35 C          66.5987   93.0020   11.4353 C.3     1  UNL1        0.0246
     36 C          67.6602   92.1801   12.1042 C.3     1  UNL1        0.0049
     37 C          65.5371   93.8240   10.7663 C.3     1  UNL1        0.0049
     38 C          67.6560   93.7579   10.6865 C.3     1  UNL1        0.0049
@<TRIPOS>BOND
     1    18    19    1
     2    19    20    1
     3    19    17    1
     4    17    16    1
     5    16     6    1
     6     6     7    1
     7     7     8    1
     8     8     9    1
     9     9    10   am
    10    10    11    2
    11    10     1    1
    12     1     2   ar
    13     2     3   ar
    14     3    35    1
    15    35    36    1
    16    35    37    1
    17    35    38    1
    18     3     4   ar
    19     4     5   ar
    20     5    21    1
    21    21    22   am
    22    22    23    2
    23    22    24   am
    24    24    27    1
    25    27    28   ar
    26    28    29   ar
    27    29    30   ar
    28    30    31   ar
    29    31    32    1
    30    31    33   ar
    31    33    34    1
    32     9    12    1
    33    12    13    1
    34    13    14    1
    35    14    15    2
    36    14     6   am
    37     5     1   ar
    38    33    27   ar
    39    21    25    1
    40    24    26    1
@<TRIPOS>MOLECULE
*****
 38 40 0 0 0
SMALL
GASTEIGER

@<TRIPOS>ATOM
      1 C          61.8967   89.2611   11.3769 C.ar    1  UNL1        0.0734
      2 C          61.0503   89.8846   10.3068 C.ar    1  UNL1        0.0085
      3 C          60.6841   88.8135    9.3227 C.ar    1  UNL1        0.0080
      4 S          61.3042   87.5280    9.7843 S.2     1  UNL1       -0.0764
      5 C          62.0536   87.8047   11.0540 C.ar    1  UNL1        0.0860
      6 N          66.1077   92.8933   11.2266 N.am    1  UNL1       -0.2763
      7 C          65.2048   91.9791   10.4525 C.3     1  UNL1        0.1149
      8 C          64.0988   91.1043   10.9634 C.3     1  UNL1        0.1152
      9 N          63.6223   90.9274   12.3747 N.am    1  UNL1       -0.2738
     10 C          62.4833   89.9695   12.5618 C.2     1  UNL1        0.2508
     11 O          61.9308   89.7201   13.9339 O.2     1  UNL1       -0.2698
     12 C          64.1342   91.5818   13.6236 C.3     1  UNL1        0.1033
     13 C          65.2491   92.5747   13.7696 C.3     1  UNL1        0.1067
     14 C          66.1273   93.1584   12.7029 C.2     1  UNL1        0.2275
     15 O          67.1621   94.1364   13.1748 O.2     1  UNL1       -0.2748
     16 C          67.1254   93.6414   10.4174 C.3     1  UNL1        0.1107
     17 C          66.6926   94.4510    9.2313 C.3     1  UNL1        0.0939
     18 C          66.4807   96.5585   10.7359 C.3     1  UNL1        0.0897
     19 N          66.4491   95.9240    9.3771 N.3     1  UNL1       -0.2688
     20 C          66.1742   96.7624    8.1641 C.3     1  UNL1        0.0897
     21 N          62.8245   86.8011   11.8592 N.am    1  UNL1       -0.2629
     22 C          62.6157   85.3339   11.6275 C.2     1  UNL1        0.3085
     23 O          61.6360   84.8702   10.5906 O.2     1  UNL1       -0.2521
     24 N          63.3867   84.3302   12.4328 N.am    1  UNL1       -0.2673
     25 H          63.4675   87.1054   12.5398 H       1  UNL1        0.1569
     26 H          64.0297   84.6345   13.1133 H       1  UNL1        0.1564
     27 C          63.1779   82.8630   12.2011 C.ar    1  UNL1        0.0630
     28 C          63.5692   82.2475   10.8903 C.ar    1  UNL1        0.0156
     29 C          63.3604   80.7804   10.6586 C.ar    1  UNL1        0.0022
     30 C          62.7604   79.9285   11.7377 C.ar    1  UNL1        0.0123
     31 C          62.3691   80.5440   13.0485 C.ar    1  UNL1        0.0694
     32 CL         61.7691   79.6922   14.1276 Cl      1  UNL1       -0.0813
     33 C          62.5779   82.0112   13.2802 C.ar    1  UNL1        0.0816
     34 CL         62.1866   82.6267   14.5910 Cl      1  UNL1       -0.0801
     35 C          59.8452   88.9959    8.0927 C.3     1  UNL1        0.0246
     36 C          59.4277   87.5570    8.1641 C.3     1  UNL1        0.0049
     37 C          60.2626   90.4349    8.0213 C.3     1  UNL1        0.0049
     38 C          59.0062   89.1783    6.8627 C.3     1  UNL1        0.0049
@<TRIPOS>BOND
     1    18    19    1
     2    19    20    1
     3    19    17    1
     4    17    16    1
     5    16     6    1
     6     6     7    1
     7     7     8    1
     8     8     9    1
     9     9    10   am
    10    10    11    2
    11    10     1    1
    12     1     2   ar
    13     2     3   ar
    14     3    35    1
    15    35    36    1
    16    35    37    1
    17    35    38    1
    18     3     4   ar
    19     4     5   ar
    20     5    21    1
    21    21    22   am
    22    22    23    2
    23    22    24   am
    24    24    27    1
    25    27    28   ar
    26    28    29   ar
    27    29    30   ar
    28    30    31   ar
    29    31    32    1
    30    31    33   ar
    31    33    34    1
    32     9    12    1
    33    12    13    1
    34    13    14    1
    35    14    15    2
    36    14     6   am
    37     5     1   ar
    38    33    27   ar
    39    21    25    1
    40    24    26    1
