@<TRIPOS>MOLECULE
*****
 45 51 0 0 0
SMALL
GASTEIGER

@<TRIPOS>ATOM
      1 C          64.7641   89.4331   14.6917 C.2     1  UNL1        0.0770
      2 N          65.8176   90.3290   15.2724 N.2     1  UNL1       -0.2460
      3 C          65.9333   91.5389   14.3934 C.2     1  UNL1        0.0773
      4 C          66.8060   92.7564   14.4713 C.2     1  UNL1        0.0182
      5 C          66.6966   93.8257   13.4251 C.2     1  UNL1       -0.0062
      6 C          65.7145   93.6775   12.3010 C.2     1  UNL1       -0.0322
      7 C          64.8418   92.4601   12.2231 C.3     1  UNL1        0.0500
      8 C          64.9512   91.3908   13.2693 C.2     1  UNL1       -0.0029
      9 C          64.2286   90.0893   13.4537 C.2     1  UNL1       -0.0057
     10 C          62.2125   86.7004   18.3003 C.3     1  UNL1        0.0310
     11 C          63.0476   86.7464   17.0550 C.ar    1  UNL1       -0.0221
     12 C          63.4419   85.4722   16.3689 C.ar    1  UNL1       -0.0085
     13 C          64.2769   85.5182   15.1237 C.ar    1  UNL1       -0.0221
     14 C          64.6713   84.2440   14.4375 C.3     1  UNL1        0.0310
     15 C          64.7176   86.8386   14.5646 C.ar    1  UNL1       -0.0028
     16 C          64.3233   88.1128   15.2508 C.ar    1  UNL1        0.0167
     17 C          63.4883   88.0667   16.4959 C.ar    1  UNL1       -0.0028
     18 C          65.6052   94.7469   11.2548 C.3     1  UNL1        0.0845
     19 C          64.9608   93.7666   10.3201 C.3     1  UNL1        0.0132
     20 C          66.2496   95.7273   12.1894 C.3     1  UNL1        0.0132
     21 C          65.4958   95.8162   10.2086 C.2     1  UNL1        0.2281
     22 O          64.4125   96.8496   10.3026 O.2     1  UNL1       -0.2746
     23 N          66.4697   95.8523    9.0683 N.am    1  UNL1       -0.2826
     24 C          67.5992   94.8914    8.8428 C.3     1  UNL1        0.0754
     25 C          68.3127   95.3008    7.5884 C.3     1  UNL1        0.0215
     26 C          67.6241   96.5148    7.0387 C.3     1  UNL1        0.0215
     27 C          66.4851   96.8556    7.9533 C.3     1  UNL1        0.0754
     28 C          65.7716   96.4462    9.2076 C.3     1  UNL1        0.0215
     29 C          66.4602   95.2322    9.7574 C.3     1  UNL1        0.0215
     30 C          63.1584   89.5404   12.5574 C.3     1  UNL1        0.0393
     31 C          63.2920   88.1587   11.9887 C.3     1  UNL1        0.0062
     32 C          61.9546   90.3730   12.2296 C.3     1  UNL1        0.0730
     33 N          60.6935   89.7141   11.7548 N.3     1  UNL1       -0.2969
     34 H          59.9300   90.3596   11.9566 H       1  UNL1        0.1233
     35 C          60.5526   89.3130   10.3163 C.3     1  UNL1        0.0733
     36 C          60.1028   87.9258    9.9650 C.3     1  UNL1        0.0435
     37 C          61.1066   86.8163    9.8585 C.ar    1  UNL1       -0.0177
     38 C          61.8826   86.6262    8.5891 C.ar    1  UNL1       -0.0025
     39 C          62.8864   85.5166    8.4826 C.ar    1  UNL1        0.0220
     40 C          63.1141   84.5971    9.6456 C.ar    1  UNL1        0.1190
     41 N          64.0301   83.4243    9.8335 N.ar    1  UNL1       -0.2042
     42 C          63.8202   82.8894   11.2191 C.ar    1  UNL1        0.2851
     43 O          62.7744   83.7318   11.8875 O.2     1  UNL1       -0.4312
     44 C          62.3380   84.7872   10.9151 C.ar    1  UNL1        0.1646
     45 C          61.3343   85.8967   11.0216 C.ar    1  UNL1        0.0349
@<TRIPOS>BOND
     1    10    11    1
     2    11    12   ar
     3    12    13   ar
     4    13    14    1
     5    13    15   ar
     6    15    16   ar
     7    16     1    1
     8     1     2    2
     9     2     3    1
    10     3     4    2
    11     4     5    1
    12     5     6    2
    13     6    18    1
    14    18    19    1
    15    18    20    1
    16    18    21    1
    17    21    22    2
    18    21    23   am
    19    23    24    1
    20    24    25    1
    21    25    26    1
    22    26    27    1
    23    27    28    1
    24    28    29    1
    25     6     7    1
    26     7     8    1
    27     8     9    2
    28     9    30    1
    29    30    31    1
    30    30    32    1
    31    32    33    1
    32    33    35    1
    33    35    36    1
    34    36    37    1
    35    37    38   ar
    36    38    39   ar
    37    39    40   ar
    38    40    41   ar
    39    41    42   ar
    40    42    43   ar
    41    43    44   ar
    42    44    45   ar
    43    16    17   ar
    44    17    11   ar
    45     9     1    1
    46    45    37   ar
    47     8     3    1
    48    44    40   ar
    49    27    23    1
    50    29    24    1
    51    33    34    1
@<TRIPOS>MOLECULE
*****
 45 51 0 0 0
SMALL
GASTEIGER

@<TRIPOS>ATOM
      1 C          62.1556   87.0238   10.4994 C.2     1  UNL1        0.0770
      2 N          62.7259   86.2321   11.6387 N.2     1  UNL1       -0.2460
      3 C          63.3075   87.1972   12.6287 C.2     1  UNL1        0.0773
      4 C          64.0018   86.9913   13.9423 C.2     1  UNL1        0.0182
      5 C          64.4854   88.1736   14.7284 C.2     1  UNL1       -0.0062
      6 C          64.2746   89.5620   14.2011 C.2     1  UNL1       -0.0322
      7 C          63.5803   89.7679   12.8875 C.3     1  UNL1        0.0500
      8 C          63.0968   88.5855   12.1013 C.2     1  UNL1       -0.0029
      9 C          62.3849   88.4784   10.7854 C.2     1  UNL1       -0.0057
     10 C          57.8661   86.3750    7.6396 C.3     1  UNL1        0.0310
     11 C          59.3308   86.1356    7.8572 C.ar    1  UNL1       -0.0221
     12 C          60.1154   85.3326    6.8625 C.ar    1  UNL1       -0.0085
     13 C          61.5801   85.0933    7.0801 C.ar    1  UNL1       -0.0221
     14 C          62.3648   84.2902    6.0854 C.3     1  UNL1        0.0310
     15 C          62.2602   85.6571    8.2924 C.ar    1  UNL1       -0.0028
     16 C          61.4756   86.4601    9.2871 C.ar    1  UNL1        0.0167
     17 C          60.0109   86.6994    9.0695 C.ar    1  UNL1       -0.0028
     18 C          64.7582   90.7444   14.9873 C.3     1  UNL1        0.0845
     19 C          64.1653   90.1578   16.2340 C.3     1  UNL1        0.0132
     20 C          65.3512   91.3309   13.7406 C.3     1  UNL1        0.0132
     21 C          65.2418   91.9267   15.7736 C.2     1  UNL1        0.2281
     22 O          64.3012   92.6556   16.6869 O.2     1  UNL1       -0.2746
     23 N          66.6660   92.3802   15.6466 N.am    1  UNL1       -0.2826
     24 C          67.7165   91.7541   14.7781 C.3     1  UNL1        0.0754
     25 C          68.9895   92.5264   14.9605 C.3     1  UNL1        0.0215
     26 C          68.7256   93.6298   15.9417 C.3     1  UNL1        0.0215
     27 C          67.2896   93.5395   16.3657 C.3     1  UNL1        0.0754
     28 C          66.0167   92.7672   16.1833 C.3     1  UNL1        0.0215
     29 C          66.2805   91.6637   15.2021 C.3     1  UNL1        0.0215
     30 C          61.9743   89.6246    9.9092 C.3     1  UNL1        0.0393
     31 C          62.8939   90.7955    9.7260 C.3     1  UNL1        0.0062
     32 C          60.6443   89.6000    9.2162 C.3     1  UNL1        0.0730
     33 N          60.5278   90.0780    7.7992 N.3     1  UNL1       -0.2969
     34 H          61.4182   89.8736    7.3454 H       1  UNL1        0.1233
     35 C          59.4522   89.5301    6.9088 C.3     1  UNL1        0.0733
     36 C          58.7815   90.4222    5.9066 C.3     1  UNL1        0.0435
     37 C          59.6031   91.1629    4.8935 C.ar    1  UNL1       -0.0177
     38 C          58.9684   92.2233    4.0436 C.ar    1  UNL1       -0.0025
     39 C          59.7900   92.9640    3.0305 C.ar    1  UNL1        0.0220
     40 C          61.2464   92.6443    2.8674 C.ar    1  UNL1        0.1190
     41 N          62.3010   93.2031    1.9589 N.ar    1  UNL1       -0.2042
     42 C          63.5877   92.4880    2.2474 C.ar    1  UNL1        0.2851
     43 O          63.3282   91.4873    3.3342 O.2     1  UNL1       -0.4312
     44 C          61.8811   91.5838    3.7173 C.ar    1  UNL1        0.1646
     45 C          61.0595   90.8431    4.7304 C.ar    1  UNL1        0.0349
@<TRIPOS>BOND
     1    10    11    1
     2    11    12   ar
     3    12    13   ar
     4    13    14    1
     5    13    15   ar
     6    15    16   ar
     7    16     1    1
     8     1     2    2
     9     2     3    1
    10     3     4    2
    11     4     5    1
    12     5     6    2
    13     6    18    1
    14    18    19    1
    15    18    20    1
    16    18    21    1
    17    21    22    2
    18    21    23   am
    19    23    24    1
    20    24    25    1
    21    25    26    1
    22    26    27    1
    23    27    28    1
    24    28    29    1
    25     6     7    1
    26     7     8    1
    27     8     9    2
    28     9    30    1
    29    30    31    1
    30    30    32    1
    31    32    33    1
    32    33    35    1
    33    35    36    1
    34    36    37    1
    35    37    38   ar
    36    38    39   ar
    37    39    40   ar
    38    40    41   ar
    39    41    42   ar
    40    42    43   ar
    41    43    44   ar
    42    44    45   ar
    43    16    17   ar
    44    17    11   ar
    45     9     1    1
    46    45    37   ar
    47     8     3    1
    48    44    40   ar
    49    27    23    1
    50    29    24    1
    51    33    34    1
@<TRIPOS>MOLECULE
*****
 45 51 0 0 0
SMALL
GASTEIGER

@<TRIPOS>ATOM
      1 C          62.0479   87.2354   11.1114 C.2     1  UNL1        0.0770
      2 N          61.1836   86.2996   10.3193 N.2     1  UNL1       -0.2460
      3 C          60.5507   87.0823    9.2072 C.2     1  UNL1        0.0773
      4 C          59.6048   86.6858    8.1128 C.2     1  UNL1        0.0182
      5 C          59.1319   87.7089    7.1230 C.2     1  UNL1       -0.0062
      6 C          59.6050   89.1285    7.2277 C.2     1  UNL1       -0.0322
      7 C          60.5509   89.5250    8.3222 C.3     1  UNL1        0.0500
      8 C          61.0238   88.5019    9.3119 C.2     1  UNL1       -0.0029
      9 C          61.9491   88.5965   10.4888 C.2     1  UNL1       -0.0057
     10 C          64.2343   83.6305   14.1486 C.3     1  UNL1        0.0310
     11 C          63.9603   85.0713   13.8334 C.ar    1  UNL1       -0.0221
     12 C          64.5054   86.1501   14.7215 C.ar    1  UNL1       -0.0085
     13 C          64.2314   87.5908   14.4062 C.ar    1  UNL1       -0.0221
     14 C          64.7766   88.6697   15.2943 C.3     1  UNL1        0.0310
     15 C          63.4122   87.9525   13.2028 C.ar    1  UNL1       -0.0028
     16 C          62.8671   86.8737   12.3147 C.ar    1  UNL1        0.0167
     17 C          63.1411   85.4330   12.6300 C.ar    1  UNL1       -0.0028
     18 C          59.1321   90.1516    6.2379 C.3     1  UNL1        0.0845
     19 C          57.7415   89.5965    6.3286 C.3     1  UNL1        0.0132
     20 C          60.5226   90.7067    6.1472 C.3     1  UNL1        0.0132
     21 C          58.6591   91.1746    5.2481 C.2     1  UNL1        0.2281
     22 O          57.2217   91.6035    5.2416 O.2     1  UNL1       -0.2746
     23 N          59.6235   91.7688    4.2648 N.am    1  UNL1       -0.2826
     24 C          61.0827   91.4399    4.1521 C.3     1  UNL1        0.0754
     25 C          61.6591   92.2640    3.0392 C.3     1  UNL1        0.0215
     26 C          60.5561   93.1023    2.4640 C.3     1  UNL1        0.0215
     27 C          59.2981   92.7962    3.2215 C.3     1  UNL1        0.0754
     28 C          58.7217   91.9721    4.3344 C.3     1  UNL1        0.0215
     29 C          59.8246   91.1338    4.9096 C.3     1  UNL1        0.0215
     30 C          62.6522   89.8348   10.9602 C.3     1  UNL1        0.0393
     31 C          63.4842   90.6355   10.0026 C.3     1  UNL1        0.0062
     32 C          62.5233   90.2726   12.3890 C.3     1  UNL1        0.0730
     33 N          63.3330   91.4295   12.8950 N.3     1  UNL1       -0.2969
     34 H          62.8821   91.7524   13.7511 H       1  UNL1        0.1233
     35 C          64.7868   91.2446   13.2145 C.3     1  UNL1        0.0733
     36 C          65.6827   92.4400   13.3506 C.3     1  UNL1        0.0435
     37 C          66.2066   93.1281   12.1250 C.ar    1  UNL1       -0.0177
     38 C          66.8480   92.3267   11.0313 C.ar    1  UNL1       -0.0025
     39 C          67.3719   93.0147    9.8057 C.ar    1  UNL1        0.0220
     40 C          67.2543   94.5043    9.6738 C.ar    1  UNL1        0.1190
     41 N          67.6756   95.4523    8.5904 N.ar    1  UNL1       -0.2042
     42 C          67.2946   96.8397    9.0146 C.ar    1  UNL1        0.2851
     43 O          66.6378   96.7491   10.3601 O.2     1  UNL1       -0.4312
     44 C          66.6129   95.3057   10.7675 C.ar    1  UNL1        0.1646
     45 C          66.0890   94.6176   11.9931 C.ar    1  UNL1        0.0349
@<TRIPOS>BOND
     1    10    11    1
     2    11    12   ar
     3    12    13   ar
     4    13    14    1
     5    13    15   ar
     6    15    16   ar
     7    16     1    1
     8     1     2    2
     9     2     3    1
    10     3     4    2
    11     4     5    1
    12     5     6    2
    13     6    18    1
    14    18    19    1
    15    18    20    1
    16    18    21    1
    17    21    22    2
    18    21    23   am
    19    23    24    1
    20    24    25    1
    21    25    26    1
    22    26    27    1
    23    27    28    1
    24    28    29    1
    25     6     7    1
    26     7     8    1
    27     8     9    2
    28     9    30    1
    29    30    31    1
    30    30    32    1
    31    32    33    1
    32    33    35    1
    33    35    36    1
    34    36    37    1
    35    37    38   ar
    36    38    39   ar
    37    39    40   ar
    38    40    41   ar
    39    41    42   ar
    40    42    43   ar
    41    43    44   ar
    42    44    45   ar
    43    16    17   ar
    44    17    11   ar
    45     9     1    1
    46    45    37   ar
    47     8     3    1
    48    44    40   ar
    49    27    23    1
    50    29    24    1
    51    33    34    1
@<TRIPOS>MOLECULE
*****
 45 51 0 0 0
SMALL
GASTEIGER

@<TRIPOS>ATOM
      1 C          61.7308   86.7999   10.7903 C.2     1  UNL1        0.0770
      2 N          60.9646   85.9325    9.8361 N.2     1  UNL1       -0.2460
      3 C          60.3835   86.8152    8.7716 C.2     1  UNL1        0.0773
      4 C          59.5363   86.5150    7.5708 C.2     1  UNL1        0.0182
      5 C          59.0963   87.6276    6.6663 C.2     1  UNL1       -0.0062
      6 C          59.5034   89.0406    6.9626 C.2     1  UNL1       -0.0322
      7 C          60.3506   89.3409    8.1634 C.3     1  UNL1        0.0500
      8 C          60.7907   88.2282    9.0679 C.2     1  UNL1       -0.0029
      9 C          61.6233   88.2187   10.3156 C.2     1  UNL1       -0.0057
     10 C          63.1854   82.9570   13.9711 C.3     1  UNL1        0.0310
     11 C          63.2014   84.4094   13.5963 C.ar    1  UNL1       -0.0221
     12 C          63.9605   85.3926   14.4370 C.ar    1  UNL1       -0.0085
     13 C          63.9764   86.8449   14.0622 C.ar    1  UNL1       -0.0221
     14 C          64.7356   87.8283   14.9030 C.3     1  UNL1        0.0310
     15 C          63.2332   87.3140   12.8467 C.ar    1  UNL1       -0.0028
     16 C          62.4741   86.3308   12.0059 C.ar    1  UNL1        0.0167
     17 C          62.4581   84.8785   12.3807 C.ar    1  UNL1       -0.0028
     18 C          59.0633   90.1533    6.0580 C.3     1  UNL1        0.0845
     19 C          57.6308   89.7687    6.2819 C.3     1  UNL1        0.0132
     20 C          60.4957   90.5380    5.8341 C.3     1  UNL1        0.0132
     21 C          58.6231   91.2660    5.1534 C.2     1  UNL1        0.2281
     22 O          57.2086   91.7624    5.2086 O.2     1  UNL1       -0.2746
     23 N          59.5973   91.8823    4.1937 N.am    1  UNL1       -0.2826
     24 C          61.0362   91.4930    4.0264 C.3     1  UNL1        0.0754
     25 C          61.6319   92.3662    2.9621 C.3     1  UNL1        0.0215
     26 C          60.5612   93.2952    2.4717 C.3     1  UNL1        0.0215
     27 C          59.3038   92.9961    3.2329 C.3     1  UNL1        0.0754
     28 C          58.7081   92.1229    4.2972 C.3     1  UNL1        0.0215
     29 C          59.7788   91.1939    4.7876 C.3     1  UNL1        0.0215
     30 C          62.2402   89.4175   10.9730 C.3     1  UNL1        0.0393
     31 C          61.7324   89.8873   12.3041 C.3     1  UNL1        0.0062
     32 C          63.3647   90.1467   10.2995 C.3     1  UNL1        0.0730
     33 N          63.1979   91.5849    9.9076 N.3     1  UNL1       -0.2969
     34 H          62.2539   91.8572   10.1817 H       1  UNL1        0.1233
     35 C          64.1263   92.6254   10.4603 C.3     1  UNL1        0.0733
     36 C          65.5437   92.2649   10.7936 C.3     1  UNL1        0.0435
     37 C          65.9829   92.1951   12.2261 C.ar    1  UNL1       -0.0177
     38 C          65.0491   91.6614   13.2717 C.ar    1  UNL1       -0.0025
     39 C          65.4882   91.5915   14.7043 C.ar    1  UNL1        0.0220
     40 C          66.8612   92.0554   15.0913 C.ar    1  UNL1        0.1190
     41 N          67.5676   92.1069   16.4136 N.ar    1  UNL1       -0.2042
     42 C          68.9380   92.6724   16.1852 C.ar    1  UNL1        0.2851
     43 O          69.0785   92.9705   14.7218 O.2     1  UNL1       -0.4312
     44 C          67.7949   92.5891   14.0458 C.ar    1  UNL1        0.1646
     45 C          67.3558   92.6590   12.6132 C.ar    1  UNL1        0.0349
@<TRIPOS>BOND
     1    10    11    1
     2    11    12   ar
     3    12    13   ar
     4    13    14    1
     5    13    15   ar
     6    15    16   ar
     7    16     1    1
     8     1     2    2
     9     2     3    1
    10     3     4    2
    11     4     5    1
    12     5     6    2
    13     6    18    1
    14    18    19    1
    15    18    20    1
    16    18    21    1
    17    21    22    2
    18    21    23   am
    19    23    24    1
    20    24    25    1
    21    25    26    1
    22    26    27    1
    23    27    28    1
    24    28    29    1
    25     6     7    1
    26     7     8    1
    27     8     9    2
    28     9    30    1
    29    30    31    1
    30    30    32    1
    31    32    33    1
    32    33    35    1
    33    35    36    1
    34    36    37    1
    35    37    38   ar
    36    38    39   ar
    37    39    40   ar
    38    40    41   ar
    39    41    42   ar
    40    42    43   ar
    41    43    44   ar
    42    44    45   ar
    43    16    17   ar
    44    17    11   ar
    45     9     1    1
    46    45    37   ar
    47     8     3    1
    48    44    40   ar
    49    27    23    1
    50    29    24    1
    51    33    34    1
@<TRIPOS>MOLECULE
*****
 45 51 0 0 0
SMALL
GASTEIGER

@<TRIPOS>ATOM
      1 C          62.2865   88.6181    9.8019 C.2     1  UNL1        0.0770
      2 N          62.5656   90.0221    9.3536 N.2     1  UNL1       -0.2460
      3 C          63.2835   90.7294   10.4645 C.2     1  UNL1        0.0773
      4 C          63.8086   92.1289   10.5893 C.2     1  UNL1        0.0182
      5 C          64.4982   92.5616   11.8491 C.2     1  UNL1       -0.0062
      6 C          64.6628   91.5948   12.9841 C.2     1  UNL1       -0.0322
      7 C          64.1377   90.1953   12.8593 C.3     1  UNL1        0.0500
      8 C          63.4481   89.7626   11.5995 C.2     1  UNL1       -0.0029
      9 C          62.8319   88.4578   11.1900 C.2     1  UNL1       -0.0057
     10 C          57.9098   86.6292    7.8299 C.3     1  UNL1        0.0310
     11 C          59.3968   86.5658    8.0165 C.ar    1  UNL1       -0.0221
     12 C          60.1824   85.4445    7.4037 C.ar    1  UNL1       -0.0085
     13 C          61.6694   85.3811    7.5903 C.ar    1  UNL1       -0.0221
     14 C          62.4551   84.2598    6.9775 C.3     1  UNL1        0.0310
     15 C          62.3707   86.4390    8.3897 C.ar    1  UNL1       -0.0028
     16 C          61.5851   87.5603    9.0025 C.ar    1  UNL1        0.0167
     17 C          60.0982   87.6237    8.8159 C.ar    1  UNL1       -0.0028
     18 C          65.3525   92.0276   14.2439 C.3     1  UNL1        0.0845
     19 C          64.8774   90.7822   14.9318 C.3     1  UNL1        0.0132
     20 C          65.8276   93.2730   13.5561 C.3     1  UNL1        0.0132
     21 C          66.0422   92.4603   15.5037 C.2     1  UNL1        0.2281
     22 O          65.2359   92.7886   16.7253 O.2     1  UNL1       -0.2746
     23 N          67.5380   92.5647   15.5420 N.am    1  UNL1       -0.2826
     24 C          68.4718   92.2706   14.4055 C.3     1  UNL1        0.0754
     25 C          69.8736   92.5057   14.8845 C.3     1  UNL1        0.0215
     26 C          69.8063   92.9451   16.3172 C.3     1  UNL1        0.0215
     27 C          68.3629   92.9816   16.7235 C.3     1  UNL1        0.0754
     28 C          66.9610   92.7465   16.2444 C.3     1  UNL1        0.0215
     29 C          67.0283   92.3071   14.8118 C.3     1  UNL1        0.0215
     30 C          62.7717   87.2114   12.0224 C.3     1  UNL1        0.0393
     31 C          61.6306   86.2522   11.8552 C.3     1  UNL1        0.0062
     32 C          63.8524   86.9242   13.0221 C.3     1  UNL1        0.0730
     33 N          63.5634   87.0293   14.4902 N.3     1  UNL1       -0.2969
     34 H          62.5824   86.7797   14.6158 H       1  UNL1        0.1233
     35 C          64.3480   86.2079   15.4698 C.3     1  UNL1        0.0733
     36 C          63.9208   84.8047   15.7839 C.3     1  UNL1        0.0435
     37 C          63.5892   83.8549   14.6713 C.ar    1  UNL1       -0.0177
     38 C          62.4358   82.9065   14.8136 C.ar    1  UNL1       -0.0025
     39 C          62.1042   81.9567   13.7010 C.ar    1  UNL1        0.0220
     40 C          62.9259   81.9552   12.4461 C.ar    1  UNL1        0.1190
     41 N          62.8386   81.1398   11.1901 N.ar    1  UNL1       -0.2042
     42 C          63.9380   81.5843   10.2716 C.ar    1  UNL1        0.2851
     43 O          64.7048   82.6744   10.9599 O.2     1  UNL1       -0.4312
     44 C          64.0792   82.9036   12.3038 C.ar    1  UNL1        0.1646
     45 C          64.4109   83.8535   13.4164 C.ar    1  UNL1        0.0349
@<TRIPOS>BOND
     1    10    11    1
     2    11    12   ar
     3    12    13   ar
     4    13    14    1
     5    13    15   ar
     6    15    16   ar
     7    16     1    1
     8     1     2    2
     9     2     3    1
    10     3     4    2
    11     4     5    1
    12     5     6    2
    13     6    18    1
    14    18    19    1
    15    18    20    1
    16    18    21    1
    17    21    22    2
    18    21    23   am
    19    23    24    1
    20    24    25    1
    21    25    26    1
    22    26    27    1
    23    27    28    1
    24    28    29    1
    25     6     7    1
    26     7     8    1
    27     8     9    2
    28     9    30    1
    29    30    31    1
    30    30    32    1
    31    32    33    1
    32    33    35    1
    33    35    36    1
    34    36    37    1
    35    37    38   ar
    36    38    39   ar
    37    39    40   ar
    38    40    41   ar
    39    41    42   ar
    40    42    43   ar
    41    43    44   ar
    42    44    45   ar
    43    16    17   ar
    44    17    11   ar
    45     9     1    1
    46    45    37   ar
    47     8     3    1
    48    44    40   ar
    49    27    23    1
    50    29    24    1
    51    33    34    1
@<TRIPOS>MOLECULE
*****
 45 51 0 0 0
SMALL
GASTEIGER

@<TRIPOS>ATOM
      1 C          60.0565   88.3345    7.0516 C.2     1  UNL1        0.0770
      2 N          60.3158   86.9598    6.5103 N.2     1  UNL1       -0.2460
      3 C          60.9881   86.1578    7.5849 C.2     1  UNL1        0.0773
      4 C          61.4783   84.7406    7.6215 C.2     1  UNL1        0.0182
      5 C          62.1246   84.2025    8.8635 C.2     1  UNL1       -0.0062
      6 C          62.2808   85.0815   10.0689 C.2     1  UNL1       -0.0322
      7 C          61.7906   86.4986   10.0323 C.3     1  UNL1        0.0500
      8 C          61.1443   87.0368    8.7903 C.2     1  UNL1       -0.0029
      9 C          60.5685   88.3821    8.4606 C.2     1  UNL1       -0.0057
     10 C          55.7571   90.8688    5.6049 C.3     1  UNL1        0.0310
     11 C          57.2507   90.7306    5.5900 C.ar    1  UNL1       -0.0221
     12 C          58.0880   91.7213    4.8369 C.ar    1  UNL1       -0.0085
     13 C          59.5815   91.5831    4.8220 C.ar    1  UNL1       -0.0221
     14 C          60.4190   92.5739    4.0688 C.3     1  UNL1        0.0310
     15 C          60.2377   90.4542    5.5602 C.ar    1  UNL1       -0.0028
     16 C          59.4003   89.4635    6.3133 C.ar    1  UNL1        0.0167
     17 C          57.9068   89.6017    6.3282 C.ar    1  UNL1       -0.0028
     18 C          62.9272   84.5432   11.3109 C.3     1  UNL1        0.0845
     19 C          63.8260   83.6849   10.4711 C.3     1  UNL1        0.0132
     20 C          62.0283   85.4016   12.1507 C.3     1  UNL1        0.0132
     21 C          63.5735   84.0050   12.5529 C.2     1  UNL1        0.2281
     22 O          64.5117   84.8674   13.3442 O.2     1  UNL1       -0.2746
     23 N          63.2818   82.6044   13.0035 N.am    1  UNL1       -0.2826
     24 C          62.3702   81.6296   12.3187 C.3     1  UNL1        0.0754
     25 C          62.3755   80.3554   13.1101 C.3     1  UNL1        0.0215
     26 C          63.2903   80.5425   14.2840 C.3     1  UNL1        0.0215
     27 C          63.8504   81.9325   14.2181 C.3     1  UNL1        0.0754
     28 C          63.8452   83.2067   13.4268 C.3     1  UNL1        0.0215
     29 C          62.9304   83.0196   12.2529 C.3     1  UNL1        0.0215
     30 C          60.5143   89.5669    9.3789 C.3     1  UNL1        0.0393
     31 C          61.3723   90.7669    9.1065 C.3     1  UNL1        0.0062
     32 C          59.6023   89.5519   10.5696 C.3     1  UNL1        0.0730
     33 N          60.0983   89.0362   11.8880 N.3     1  UNL1       -0.2969
     34 H          60.4147   88.0795   11.7297 H       1  UNL1        0.1233
     35 C          61.2097   89.7474   12.6014 C.3     1  UNL1        0.0733
     36 C          62.6376   89.4432   12.2572 C.3     1  UNL1        0.0435
     37 C          63.6886   90.5020   12.4132 C.ar    1  UNL1       -0.0177
     38 C          64.0359   91.3905   11.2557 C.ar    1  UNL1       -0.0025
     39 C          65.0869   92.4493   11.4117 C.ar    1  UNL1        0.0220
     40 C          65.7907   92.6195   12.7254 C.ar    1  UNL1        0.1190
     41 N          66.8615   93.5690   13.1746 N.ar    1  UNL1       -0.2042
     42 C          67.1762   93.2672   14.6099 C.ar    1  UNL1        0.2851
     43 O          66.2997   92.1313   15.0476 O.2     1  UNL1       -0.4312
     44 C          65.4435   91.7310   13.8829 C.ar    1  UNL1        0.1646
     45 C          64.3924   90.6723   13.7268 C.ar    1  UNL1        0.0349
@<TRIPOS>BOND
     1    10    11    1
     2    11    12   ar
     3    12    13   ar
     4    13    14    1
     5    13    15   ar
     6    15    16   ar
     7    16     1    1
     8     1     2    2
     9     2     3    1
    10     3     4    2
    11     4     5    1
    12     5     6    2
    13     6    18    1
    14    18    19    1
    15    18    20    1
    16    18    21    1
    17    21    22    2
    18    21    23   am
    19    23    24    1
    20    24    25    1
    21    25    26    1
    22    26    27    1
    23    27    28    1
    24    28    29    1
    25     6     7    1
    26     7     8    1
    27     8     9    2
    28     9    30    1
    29    30    31    1
    30    30    32    1
    31    32    33    1
    32    33    35    1
    33    35    36    1
    34    36    37    1
    35    37    38   ar
    36    38    39   ar
    37    39    40   ar
    38    40    41   ar
    39    41    42   ar
    40    42    43   ar
    41    43    44   ar
    42    44    45   ar
    43    16    17   ar
    44    17    11   ar
    45     9     1    1
    46    45    37   ar
    47     8     3    1
    48    44    40   ar
    49    27    23    1
    50    29    24    1
    51    33    34    1
@<TRIPOS>MOLECULE
*****
 45 51 0 0 0
SMALL
GASTEIGER

@<TRIPOS>ATOM
      1 C          60.0508   88.4507    7.0690 C.2     1  UNL1        0.0770
      2 N          60.2306   87.0410    6.5890 N.2     1  UNL1       -0.2460
      3 C          60.8903   86.2585    7.6855 C.2     1  UNL1        0.0773
      4 C          61.3129   84.8223    7.7793 C.2     1  UNL1        0.0182
      5 C          61.9635   84.3123    9.0309 C.2     1  UNL1       -0.0062
      6 C          62.1916   85.2383   10.1887 C.2     1  UNL1       -0.0322
      7 C          61.7690   86.6745   10.0948 C.3     1  UNL1        0.0500
      8 C          61.1184   87.1846    8.8433 C.2     1  UNL1       -0.0029
      9 C          60.5995   88.5394    8.4622 C.2     1  UNL1       -0.0057
     10 C          60.5542   92.6192    4.0080 C.3     1  UNL1        0.0310
     11 C          59.6828   91.6586    4.7617 C.ar    1  UNL1       -0.0221
     12 C          58.1920   91.8217    4.7386 C.ar    1  UNL1       -0.0085
     13 C          57.3207   90.8612    5.4923 C.ar    1  UNL1       -0.0221
     14 C          55.8297   91.0242    5.4693 C.3     1  UNL1        0.0310
     15 C          57.9403   89.7375    6.2691 C.ar    1  UNL1       -0.0028
     16 C          59.4312   89.5744    6.2922 C.ar    1  UNL1        0.0167
     17 C          60.3025   90.5350    5.5385 C.ar    1  UNL1       -0.0028
     18 C          62.8422   84.7282   11.4403 C.3     1  UNL1        0.0845
     19 C          63.7166   83.8280   10.6188 C.3     1  UNL1        0.0132
     20 C          61.9678   85.6284   12.2618 C.3     1  UNL1        0.0132
     21 C          63.4929   84.2181   12.6918 C.2     1  UNL1        0.2281
     22 O          64.3780   85.1212   13.4987 O.2     1  UNL1       -0.2746
     23 N          63.2584   82.8048   13.1365 N.am    1  UNL1       -0.2826
     24 C          62.4033   81.7906   12.4365 C.3     1  UNL1        0.0754
     25 C          62.4543   80.5166   13.2267 C.3     1  UNL1        0.0215
     26 C          63.3410   80.7435   14.4151 C.3     1  UNL1        0.0215
     27 C          63.8379   82.1577   14.3594 C.3     1  UNL1        0.0754
     28 C          63.7869   83.4316   13.5692 C.3     1  UNL1        0.0215
     29 C          62.9003   83.2048   12.3808 C.3     1  UNL1        0.0215
     30 C          60.6249   89.7674    9.3233 C.3     1  UNL1        0.0393
     31 C          59.4342   90.1174   10.1658 C.3     1  UNL1        0.0062
     32 C          61.8409   90.6454    9.3419 C.3     1  UNL1        0.0730
     33 N          62.9182   90.4132   10.3596 N.3     1  UNL1       -0.2969
     34 H          63.6162   91.1440   10.2213 H       1  UNL1        0.1233
     35 C          62.5806   90.4078   11.8211 C.3     1  UNL1        0.0733
     36 C          63.5058   89.7507   12.8021 C.3     1  UNL1        0.0435
     37 C          64.3066   90.5881   13.7546 C.ar    1  UNL1       -0.0177
     38 C          63.8728   90.7201   15.1844 C.ar    1  UNL1       -0.0025
     39 C          64.6736   91.5575   16.1370 C.ar    1  UNL1        0.0220
     40 C          65.9083   92.2631   15.6598 C.ar    1  UNL1        0.1190
     41 N          66.8918   93.1511   16.3626 N.ar    1  UNL1       -0.2042
     42 C          67.9336   93.5680   15.3672 C.ar    1  UNL1        0.2851
     43 O          67.5939   92.9376   14.0491 O.2     1  UNL1       -0.4312
     44 C          66.3421   92.1311   14.2300 C.ar    1  UNL1        0.1646
     45 C          65.5413   91.2937   13.2774 C.ar    1  UNL1        0.0349
@<TRIPOS>BOND
     1    10    11    1
     2    11    12   ar
     3    12    13   ar
     4    13    14    1
     5    13    15   ar
     6    15    16   ar
     7    16     1    1
     8     1     2    2
     9     2     3    1
    10     3     4    2
    11     4     5    1
    12     5     6    2
    13     6    18    1
    14    18    19    1
    15    18    20    1
    16    18    21    1
    17    21    22    2
    18    21    23   am
    19    23    24    1
    20    24    25    1
    21    25    26    1
    22    26    27    1
    23    27    28    1
    24    28    29    1
    25     6     7    1
    26     7     8    1
    27     8     9    2
    28     9    30    1
    29    30    31    1
    30    30    32    1
    31    32    33    1
    32    33    35    1
    33    35    36    1
    34    36    37    1
    35    37    38   ar
    36    38    39   ar
    37    39    40   ar
    38    40    41   ar
    39    41    42   ar
    40    42    43   ar
    41    43    44   ar
    42    44    45   ar
    43    16    17   ar
    44    17    11   ar
    45     9     1    1
    46    45    37   ar
    47     8     3    1
    48    44    40   ar
    49    27    23    1
    50    29    24    1
    51    33    34    1
@<TRIPOS>MOLECULE
*****
 45 51 0 0 0
SMALL
GASTEIGER

@<TRIPOS>ATOM
      1 C          62.2208   88.5235    9.7256 C.2     1  UNL1        0.0770
      2 N          62.4561   89.9438    9.3045 N.2     1  UNL1       -0.2460
      3 C          63.1693   90.6464   10.4216 C.2     1  UNL1        0.0773
      4 C          63.6581   92.0566   10.5702 C.2     1  UNL1        0.0182
      5 C          64.3524   92.4808   11.8303 C.2     1  UNL1       -0.0062
      6 C          64.5579   91.4947   12.9418 C.2     1  UNL1       -0.0322
      7 C          64.0690   90.0844   12.7932 C.3     1  UNL1        0.0500
      8 C          63.3747   89.6603   11.5331 C.2     1  UNL1       -0.0029
      9 C          62.7885   88.3483   11.1029 C.2     1  UNL1       -0.0057
     10 C          57.8653   86.4040    7.8447 C.3     1  UNL1        0.0310
     11 C          59.3600   86.4046    7.9717 C.ar    1  UNL1       -0.0221
     12 C          60.1714   85.3461    7.2855 C.ar    1  UNL1       -0.0085
     13 C          61.6660   85.3467    7.4126 C.ar    1  UNL1       -0.0221
     14 C          62.4775   84.2881    6.7263 C.3     1  UNL1        0.0310
     15 C          62.3491   86.4058    8.2260 C.ar    1  UNL1       -0.0028
     16 C          61.5376   87.4643    8.9122 C.ar    1  UNL1        0.0167
     17 C          60.0431   87.4637    8.7851 C.ar    1  UNL1       -0.0028
     18 C          65.2522   91.9189   14.2020 C.3     1  UNL1        0.0845
     19 C          64.7461   90.6887   14.8950 C.3     1  UNL1        0.0132
     20 C          65.7583   93.1492   13.5091 C.3     1  UNL1        0.0132
     21 C          65.9465   92.3431   15.4622 C.2     1  UNL1        0.2281
     22 O          65.1468   92.6353   16.6972 O.2     1  UNL1       -0.2746
     23 N          67.4404   92.4751   15.4874 N.am    1  UNL1       -0.2826
     24 C          68.3678   92.2181   14.3368 C.3     1  UNL1        0.0754
     25 C          69.7699   92.4715   14.8059 C.3     1  UNL1        0.0215
     26 C          69.7090   92.8851   16.2465 C.3     1  UNL1        0.0215
     27 C          68.2694   92.8873   16.6676 C.3     1  UNL1        0.0754
     28 C          66.8673   92.6339   16.1985 C.3     1  UNL1        0.0215
     29 C          66.9282   92.2204   14.7579 C.3     1  UNL1        0.0215
     30 C          62.7728   87.0832   11.9087 C.3     1  UNL1        0.0393
     31 C          63.4622   87.0333   13.2400 C.3     1  UNL1        0.0062
     32 C          62.0677   85.8680   11.3833 C.3     1  UNL1        0.0730
     33 N          62.8573   84.6567   10.9839 N.3     1  UNL1       -0.2969
     34 H          63.7954   84.7777   11.3656 H       1  UNL1        0.1233
     35 C          62.3950   83.2906   11.3962 C.3     1  UNL1        0.0733
     36 C          62.8911   82.6854   12.6759 C.3     1  UNL1        0.0435
     37 C          63.1823   83.5629   13.8571 C.ar    1  UNL1       -0.0177
     38 C          64.6004   83.9059   14.2052 C.ar    1  UNL1       -0.0025
     39 C          64.8916   84.7834   15.3864 C.ar    1  UNL1        0.0220
     40 C          63.7646   85.3179   16.2196 C.ar    1  UNL1        0.1190
     41 N          63.7439   86.1991   17.4332 N.ar    1  UNL1       -0.2042
     42 C          62.3129   86.4008   17.8353 C.ar    1  UNL1        0.2851
     43 O          61.4493   85.6441   16.8701 O.2     1  UNL1       -0.4312
     44 C          62.3465   84.9748   15.8716 C.ar    1  UNL1        0.1646
     45 C          62.0553   84.0974   14.6903 C.ar    1  UNL1        0.0349
@<TRIPOS>BOND
     1    10    11    1
     2    11    12   ar
     3    12    13   ar
     4    13    14    1
     5    13    15   ar
     6    15    16   ar
     7    16     1    1
     8     1     2    2
     9     2     3    1
    10     3     4    2
    11     4     5    1
    12     5     6    2
    13     6    18    1
    14    18    19    1
    15    18    20    1
    16    18    21    1
    17    21    22    2
    18    21    23   am
    19    23    24    1
    20    24    25    1
    21    25    26    1
    22    26    27    1
    23    27    28    1
    24    28    29    1
    25     6     7    1
    26     7     8    1
    27     8     9    2
    28     9    30    1
    29    30    31    1
    30    30    32    1
    31    32    33    1
    32    33    35    1
    33    35    36    1
    34    36    37    1
    35    37    38   ar
    36    38    39   ar
    37    39    40   ar
    38    40    41   ar
    39    41    42   ar
    40    42    43   ar
    41    43    44   ar
    42    44    45   ar
    43    16    17   ar
    44    17    11   ar
    45     9     1    1
    46    45    37   ar
    47     8     3    1
    48    44    40   ar
    49    27    23    1
    50    29    24    1
    51    33    34    1
@<TRIPOS>MOLECULE
*****
 45 51 0 0 0
SMALL
GASTEIGER

@<TRIPOS>ATOM
      1 C          62.7693   83.6519   13.9114 C.2     1  UNL1        0.0770
      2 N          63.1206   84.0891   15.3027 N.2     1  UNL1       -0.2460
      3 C          63.4737   85.5462   15.2555 C.2     1  UNL1        0.0773
      4 C          63.8992   86.5108   16.3224 C.2     1  UNL1        0.0182
      5 C          64.1916   87.9389   15.9689 C.2     1  UNL1       -0.0062
      6 C          64.0585   88.4023   14.5486 C.2     1  UNL1       -0.0322
      7 C          63.6330   87.4377   13.4816 C.3     1  UNL1        0.0500
      8 C          63.3406   86.0096   13.8351 C.2     1  UNL1       -0.0029
      9 C          62.9053   84.8389   13.0045 C.2     1  UNL1       -0.0057
     10 C          59.7852   79.4548   14.6039 C.3     1  UNL1        0.0310
     11 C          60.8628   80.1719   13.8457 C.ar    1  UNL1       -0.0221
     12 C          61.5257   79.5075   12.6757 C.ar    1  UNL1       -0.0085
     13 C          62.6032   80.2246   11.9176 C.ar    1  UNL1       -0.0221
     14 C          63.2662   79.5602   10.7475 C.3     1  UNL1        0.0310
     15 C          63.0177   81.6061   12.3295 C.ar    1  UNL1       -0.0028
     16 C          62.3548   82.2705   13.4995 C.ar    1  UNL1        0.0167
     17 C          61.2773   81.5534   14.2576 C.ar    1  UNL1       -0.0028
     18 C          64.3510   89.8305   14.1951 C.3     1  UNL1        0.0845
     19 C          64.3759   89.4654   12.7405 C.3     1  UNL1        0.0132
     20 C          64.3261   90.1957   15.6497 C.3     1  UNL1        0.0132
     21 C          64.6434   91.2586   13.8416 C.2     1  UNL1        0.2281
     22 O          63.6444   92.0569   13.0575 O.2     1  UNL1       -0.2746
     23 N          65.9349   91.8885   14.2722 N.am    1  UNL1       -0.2826
     24 C          67.0240   91.2189   15.0566 C.3     1  UNL1        0.0754
     25 C          68.1262   92.2151   15.2632 C.3     1  UNL1        0.0215
     26 C          67.7183   93.5005   14.6064 C.3     1  UNL1        0.0215
     27 C          66.3640   93.2986   13.9940 C.3     1  UNL1        0.0754
     28 C          65.2618   92.3024   13.7874 C.3     1  UNL1        0.0215
     29 C          65.6697   91.0170   14.4442 C.3     1  UNL1        0.0215
     30 C          62.6506   84.8528   11.5263 C.3     1  UNL1        0.0393
     31 C          61.3403   85.3545   10.9956 C.3     1  UNL1        0.0062
     32 C          63.7061   84.3650   10.5788 C.3     1  UNL1        0.0730
     33 N          63.3217   83.8833    9.2112 N.3     1  UNL1       -0.2969
     34 H          62.3780   83.5036    9.2873 H       1  UNL1        0.1233
     35 C          63.3122   84.8384    8.0547 C.3     1  UNL1        0.0733
     36 C          62.0101   85.3620    7.5250 C.3     1  UNL1        0.0435
     37 C          61.3846   86.5782    8.1410 C.ar    1  UNL1       -0.0177
     38 C          59.9506   86.9114    7.8534 C.ar    1  UNL1       -0.0025
     39 C          59.3250   88.1276    8.4693 C.ar    1  UNL1        0.0220
     40 C          60.1334   89.0107    9.3730 C.ar    1  UNL1        0.1190
     41 N          59.7907   90.2664   10.1185 N.ar    1  UNL1       -0.2042
     42 C          61.0128   90.7093   10.8669 C.ar    1  UNL1        0.2851
     43 O          62.1109   89.7274   10.5839 O.2     1  UNL1       -0.4312
     44 C          61.5673   88.6776    9.6606 C.ar    1  UNL1        0.1646
     45 C          62.1929   87.4614    9.0447 C.ar    1  UNL1        0.0349
@<TRIPOS>BOND
     1    10    11    1
     2    11    12   ar
     3    12    13   ar
     4    13    14    1
     5    13    15   ar
     6    15    16   ar
     7    16     1    1
     8     1     2    2
     9     2     3    1
    10     3     4    2
    11     4     5    1
    12     5     6    2
    13     6    18    1
    14    18    19    1
    15    18    20    1
    16    18    21    1
    17    21    22    2
    18    21    23   am
    19    23    24    1
    20    24    25    1
    21    25    26    1
    22    26    27    1
    23    27    28    1
    24    28    29    1
    25     6     7    1
    26     7     8    1
    27     8     9    2
    28     9    30    1
    29    30    31    1
    30    30    32    1
    31    32    33    1
    32    33    35    1
    33    35    36    1
    34    36    37    1
    35    37    38   ar
    36    38    39   ar
    37    39    40   ar
    38    40    41   ar
    39    41    42   ar
    40    42    43   ar
    41    43    44   ar
    42    44    45   ar
    43    16    17   ar
    44    17    11   ar
    45     9     1    1
    46    45    37   ar
    47     8     3    1
    48    44    40   ar
    49    27    23    1
    50    29    24    1
    51    33    34    1
