@<TRIPOS>MOLECULE
*****
 67 74 0 0 0
SMALL
GASTEIGER

@<TRIPOS>ATOM
      1 N          65.5761   89.2086   14.5203 N.3     1  UNL1       -0.1862
      2 C          65.8233   87.9453   15.2903 C.3     1  UNL1        0.1775
      3 C          64.9910   86.7271   15.0199 C.2     1  UNL1        0.2452
      4 O          65.2382   85.4638   15.7900 O.2     1  UNL1       -0.2732
      5 N          63.9114   86.7721   13.9795 N.am    1  UNL1       -0.2541
      6 C          63.0791   85.5539   13.7092 C.3     1  UNL1        0.1577
      7 C          61.9995   85.5989   12.6687 C.2     1  UNL1        0.2445
      8 O          61.1672   84.3807   12.3984 O.2     1  UNL1       -0.2731
      9 N          61.7523   86.8622   11.8986 N.am    1  UNL1       -0.2705
     10 C          62.5846   88.0805   12.1690 C.3     1  UNL1        0.1359
     11 C          63.6642   88.0354   13.2095 C.3     1  UNL1        0.1908
     12 N          64.4966   89.2536   13.4799 N.am    1  UNL1       -0.1863
     13 C          64.2493   90.5170   12.7098 C.2     1  UNL1        0.3191
     14 O          63.1698   90.5620   11.6694 O.2     1  UNL1       -0.2512
     15 N          65.0816   91.7352   12.9802 N.am    1  UNL1       -0.2836
     16 H          65.7902   91.7056   13.6630 H       1  UNL1        0.1513
     17 C          66.4084   90.4269   14.7907 C.3     1  UNL1        0.1188
     18 C          66.7285   92.6946   16.0174 C.2     1  UNL1       -0.0034
     19 C          65.8461   91.5537   15.6054 C.2     1  UNL1       -0.0071
     20 C          63.3263   84.2906   14.4792 C.3     1  UNL1        0.0556
     21 C          63.1355   82.9587   13.8163 C.ar    1  UNL1       -0.0198
     22 C          62.1684   81.9665   14.3910 C.ar    1  UNL1       -0.0011
     23 C          61.9776   80.6346   13.7281 C.ar    1  UNL1        0.0363
     24 C          62.7538   80.2947   12.4905 C.ar    1  UNL1        0.1337
     25 O          62.5630   78.9628   11.8275 O.3     1  UNL1       -0.5055
     26 C          63.7210   81.2869   11.9156 C.ar    1  UNL1        0.0363
     27 C          63.9118   82.6188   12.5785 C.ar    1  UNL1       -0.0011
     28 H          61.9589   78.3430   12.1866 H       1  UNL1        0.2922
     29 C          60.6727   86.9073   10.8582 C.3     1  UNL1        0.1217
     30 C          60.3624   88.1952   10.1546 C.ar    1  UNL1        0.0135
     31 C          60.0113   89.4181   10.9491 C.ar    1  UNL1       -0.0012
     32 C          59.7010   90.7060   10.2456 C.ar    1  UNL1       -0.0002
     33 C          59.7418   90.7710    8.7476 C.ar    1  UNL1        0.0015
     34 C          60.0930   89.5481    7.9531 C.ar    1  UNL1        0.0170
     35 C          60.2123   89.3103    6.4769 C.ar    1  UNL1        0.0186
     36 C          60.5964   87.8754    6.2681 C.ar    1  UNL1        0.0759
     37 N          60.7144   87.2265    7.6152 N.ar    1  UNL1       -0.3242
     38 C          61.0794   85.7950    7.8753 C.3     1  UNL1        0.1305
     39 C          60.4033   88.2602    8.6566 C.ar    1  UNL1        0.0575
     40 C          59.9871   90.3286    5.3987 C.ar    1  UNL1        0.0015
     41 C          61.1470   90.8427    4.5985 C.ar    1  UNL1        0.0002
     42 C          60.9218   91.8610    3.5204 C.ar    1  UNL1        0.0045
     43 C          59.5367   92.3652    3.2425 C.ar    1  UNL1        0.0537
     44 C          58.3768   91.8512    4.0428 C.ar    1  UNL1        0.0045
     45 C          58.6020   90.8329    5.1209 C.ar    1  UNL1        0.0002
     46 C          59.3115   93.3835    2.1644 C.2     1  UNL1        0.2495
     47 O          59.6917   94.8161    2.3947 O.2     1  UNL1       -0.2698
     48 N          58.7061   92.9693    0.8560 N.am    1  UNL1       -0.2804
     49 H          58.4566   92.0290    0.7048 H       1  UNL1        0.1552
     50 C          58.4810   93.9877   -0.2221 C.ar    1  UNL1        0.0507
     51 C          59.6189   94.8427   -0.6954 C.ar    1  UNL1        0.0147
     52 C          59.3939   95.8611   -1.7735 C.ar    1  UNL1        0.0014
     53 C          58.0309   96.0244   -2.3782 C.ar    1  UNL1        0.0046
     54 C          56.8930   95.1694   -1.9048 C.ar    1  UNL1        0.0544
     55 C          57.1180   94.1510   -0.8268 C.ar    1  UNL1        0.0192
     56 C          55.5301   95.3327   -2.5095 C.2     1  UNL1        0.2428
     57 N          54.3341   95.5201   -1.6238 N.am    1  UNL1       -0.3253
     58 O          55.3630   95.3087   -4.0000 O.2     1  UNL1       -0.2704
     59 H          54.4437   95.5359   -0.6455 H       1  UNL1        0.1453
     60 H          53.4396   95.6273   -2.0207 H       1  UNL1        0.1453
     61 C          64.8344   92.9985   12.2101 C.3     1  UNL1        0.1177
     62 C          65.8212   93.4512   11.1751 C.ar    1  UNL1       -0.0025
     63 C          66.8314   92.4862   10.6292 C.ar    1  UNL1       -0.0026
     64 C          67.8182   92.9389    9.5942 C.ar    1  UNL1       -0.0003
     65 C          67.7948   94.3568    9.1051 C.ar    1  UNL1       -0.0000
     66 C          66.7846   95.3219    9.6511 C.ar    1  UNL1       -0.0003
     67 C          65.7978   94.8691   10.6861 C.ar    1  UNL1       -0.0026
@<TRIPOS>BOND
     1    18    19    2
     2    19    17    1
     3    17     1    1
     4     1     2    1
     5     2     3    1
     6     3     4    2
     7     3     5   am
     8     5     6    1
     9     6    20    1
    10    20    21    1
    11    21    22   ar
    12    22    23   ar
    13    23    24   ar
    14    24    25    1
    15    24    26   ar
    16    26    27   ar
    17     6     7    1
    18     7     8    2
    19     7     9   am
    20     9    29    1
    21    29    30    1
    22    30    31   ar
    23    31    32   ar
    24    32    33   ar
    25    33    34   ar
    26    34    35   ar
    27    35    40    1
    28    40    41   ar
    29    41    42   ar
    30    42    43   ar
    31    43    46    1
    32    46    47    2
    33    46    48   am
    34    48    50    1
    35    50    51   ar
    36    51    52   ar
    37    52    53   ar
    38    53    54   ar
    39    54    56    1
    40    56    57   am
    41    56    58    2
    42    54    55   ar
    43    43    44   ar
    44    44    45   ar
    45    35    36   ar
    46    36    37   ar
    47    37    38    1
    48    37    39   ar
    49     9    10    1
    50    11    10    1
    51    11    12    1
    52    12    13   am
    53    13    14    2
    54    13    15   am
    55    15    61    1
    56    61    62    1
    57    62    63   ar
    58    63    64   ar
    59    64    65   ar
    60    65    66   ar
    61    66    67   ar
    62    12     1    1
    63    67    62   ar
    64    11     5    1
    65    27    21   ar
    66    39    30   ar
    67    39    34   ar
    68    45    40   ar
    69    55    50   ar
    70    25    28    1
    71    48    49    1
    72    57    59    1
    73    57    60    1
    74    15    16    1
@<TRIPOS>MOLECULE
*****
 67 74 0 0 0
SMALL
GASTEIGER

@<TRIPOS>ATOM
      1 N          65.4701   89.9203   13.8325 N.3     1  UNL1       -0.1862
      2 C          65.8880   88.8060   14.7456 C.3     1  UNL1        0.1775
      3 C          65.1316   87.5107   14.7431 C.2     1  UNL1        0.2452
      4 O          65.5496   86.3964   15.6562 O.2     1  UNL1       -0.2732
      5 N          63.9573   87.3297   13.8277 N.am    1  UNL1       -0.2541
      6 C          63.2009   86.0344   13.8252 C.3     1  UNL1        0.1577
      7 C          62.0265   85.8534   12.9098 C.2     1  UNL1        0.2445
      8 O          61.2701   84.5581   12.9073 O.2     1  UNL1       -0.2731
      9 N          61.6085   86.9677   11.9967 N.am    1  UNL1       -0.2705
     10 C          62.3650   88.2630   11.9991 C.3     1  UNL1        0.1359
     11 C          63.5394   88.4440   12.9146 C.3     1  UNL1        0.1908
     12 N          64.2958   89.7393   12.9171 N.am    1  UNL1       -0.1863
     13 C          63.8778   90.8536   12.0040 C.2     1  UNL1        0.3191
     14 O          62.7035   90.6726   11.0885 O.2     1  UNL1       -0.2512
     15 N          64.6342   92.1489   12.0064 N.am    1  UNL1       -0.2836
     16 H          65.4050   92.2677   12.6073 H       1  UNL1        0.1513
     17 C          66.2265   91.2156   13.8350 C.3     1  UNL1        0.1188
     18 C          67.0107   92.4957   15.9555 C.2     1  UNL1       -0.0034
     19 C          67.2651   91.4757   14.8855 C.2     1  UNL1       -0.0071
     20 C          63.6188   84.9201   14.7382 C.3     1  UNL1        0.0556
     21 C          63.3531   83.4950   14.3528 C.ar    1  UNL1       -0.0198
     22 C          64.2522   82.8034   13.3713 C.ar    1  UNL1       -0.0011
     23 C          63.9865   81.3784   12.9859 C.ar    1  UNL1        0.0363
     24 C          62.8217   80.6449   13.5819 C.ar    1  UNL1        0.1337
     25 O          62.5560   79.2198   13.1965 O.3     1  UNL1       -0.5055
     26 C          61.9226   81.3365   14.5634 C.ar    1  UNL1        0.0363
     27 C          62.1883   82.7615   14.9489 C.ar    1  UNL1       -0.0011
     28 H          63.1177   78.7878   12.5834 H       1  UNL1        0.2922
     29 C          60.4342   86.7867   11.0812 C.3     1  UNL1        0.1217
     30 C          60.5832   87.0423    9.6106 C.ar    1  UNL1        0.0135
     31 C          61.1032   85.9611    8.7104 C.ar    1  UNL1       -0.0012
     32 C          61.2522   86.2167    7.2399 C.ar    1  UNL1       -0.0002
     33 C          60.8811   87.5535    6.6696 C.ar    1  UNL1        0.0015
     34 C          60.3611   88.6347    7.5699 C.ar    1  UNL1        0.0170
     35 C          59.9178   90.0414    7.2967 C.ar    1  UNL1        0.0186
     36 C          59.4949   90.6552    8.5984 C.ar    1  UNL1        0.0759
     37 N          59.6768   89.6279    9.6760 N.ar    1  UNL1       -0.3242
     38 C          59.3761   89.8162   11.1334 C.3     1  UNL1        0.1305
     39 C          60.2121   88.3791    9.0404 C.ar    1  UNL1        0.0575
     40 C          59.9005   90.7160    5.9570 C.ar    1  UNL1        0.0015
     41 C          61.1669   90.8380    5.1623 C.ar    1  UNL1        0.0002
     42 C          61.1495   91.5125    3.8227 C.ar    1  UNL1        0.0045
     43 C          59.8659   92.0649    3.2776 C.ar    1  UNL1        0.0537
     44 C          58.5995   91.9429    4.0723 C.ar    1  UNL1        0.0045
     45 C          58.6169   91.2684    5.4119 C.ar    1  UNL1        0.0002
     46 C          59.8486   92.7394    1.9380 C.2     1  UNL1        0.2495
     47 O          59.7518   94.2338    1.8518 O.2     1  UNL1       -0.2698
     48 N          59.9282   91.9195    0.6843 N.am    1  UNL1       -0.2804
     49 H          59.9917   90.9387    0.7408 H       1  UNL1        0.1552
     50 C          59.9109   92.5941   -0.6553 C.ar    1  UNL1        0.0507
     51 C          61.1754   93.1683   -1.2222 C.ar    1  UNL1        0.0147
     52 C          61.1582   93.8429   -2.5618 C.ar    1  UNL1        0.0014
     53 C          59.8765   93.9433   -3.3346 C.ar    1  UNL1        0.0046
     54 C          58.6120   93.3691   -2.7677 C.ar    1  UNL1        0.0544
     55 C          58.6292   92.6945   -1.4281 C.ar    1  UNL1        0.0192
     56 C          57.3303   93.4695   -3.5405 C.2     1  UNL1        0.2428
     57 N          57.3604   93.7990   -5.0035 N.am    1  UNL1       -0.3253
     58 O          56.0184   93.2403   -2.8502 O.2     1  UNL1       -0.2704
     59 H          58.2214   93.9495   -5.4566 H       1  UNL1        0.1453
     60 H          56.5192   93.8649   -5.5106 H       1  UNL1        0.1453
     61 C          64.2163   93.2632   11.0934 C.3     1  UNL1        0.1177
     62 C          65.2548   94.1120   10.4217 C.ar    1  UNL1       -0.0025
     63 C          65.0018   95.5742   10.2034 C.ar    1  UNL1       -0.0026
     64 C          66.0403   96.4230    9.5318 C.ar    1  UNL1       -0.0003
     65 C          67.3318   95.8095    9.0784 C.ar    1  UNL1       -0.0000
     66 C          67.5848   94.3471    9.2967 C.ar    1  UNL1       -0.0003
     67 C          66.5463   93.4984    9.9683 C.ar    1  UNL1       -0.0026
@<TRIPOS>BOND
     1    18    19    2
     2    19    17    1
     3    17     1    1
     4     1     2    1
     5     2     3    1
     6     3     4    2
     7     3     5   am
     8     5     6    1
     9     6    20    1
    10    20    21    1
    11    21    22   ar
    12    22    23   ar
    13    23    24   ar
    14    24    25    1
    15    24    26   ar
    16    26    27   ar
    17     6     7    1
    18     7     8    2
    19     7     9   am
    20     9    29    1
    21    29    30    1
    22    30    31   ar
    23    31    32   ar
    24    32    33   ar
    25    33    34   ar
    26    34    35   ar
    27    35    40    1
    28    40    41   ar
    29    41    42   ar
    30    42    43   ar
    31    43    46    1
    32    46    47    2
    33    46    48   am
    34    48    50    1
    35    50    51   ar
    36    51    52   ar
    37    52    53   ar
    38    53    54   ar
    39    54    56    1
    40    56    57   am
    41    56    58    2
    42    54    55   ar
    43    43    44   ar
    44    44    45   ar
    45    35    36   ar
    46    36    37   ar
    47    37    38    1
    48    37    39   ar
    49     9    10    1
    50    11    10    1
    51    11    12    1
    52    12    13   am
    53    13    14    2
    54    13    15   am
    55    15    61    1
    56    61    62    1
    57    62    63   ar
    58    63    64   ar
    59    64    65   ar
    60    65    66   ar
    61    66    67   ar
    62    12     1    1
    63    67    62   ar
    64    11     5    1
    65    27    21   ar
    66    39    30   ar
    67    39    34   ar
    68    45    40   ar
    69    55    50   ar
    70    25    28    1
    71    48    49    1
    72    57    59    1
    73    57    60    1
    74    15    16    1
@<TRIPOS>MOLECULE
*****
 67 74 0 0 0
SMALL
GASTEIGER

@<TRIPOS>ATOM
      1 N          64.5472   83.2249   13.3726 N.3     1  UNL1       -0.1862
      2 C          65.1395   84.0718   14.4596 C.3     1  UNL1        0.1775
      3 C          64.7146   85.5024   14.6115 C.2     1  UNL1        0.2452
      4 O          65.3070   86.3493   15.6986 O.2     1  UNL1       -0.2732
      5 N          63.6975   86.0859   13.6762 N.am    1  UNL1       -0.2541
      6 C          63.2726   87.5165   13.8281 C.3     1  UNL1        0.1577
      7 C          62.2554   88.1001   12.8928 C.2     1  UNL1        0.2445
      8 O          61.8305   89.5306   13.0447 O.2     1  UNL1       -0.2731
      9 N          61.6630   87.2531   11.8057 N.am    1  UNL1       -0.2705
     10 C          62.0879   85.8226   11.6539 C.3     1  UNL1        0.1359
     11 C          63.1051   85.2390   12.5892 C.3     1  UNL1        0.1908
     12 N          63.5300   83.8084   12.4373 N.am    1  UNL1       -0.1863
     13 C          62.9376   82.9615   11.3502 C.2     1  UNL1        0.3191
     14 O          61.9204   83.5451   10.4150 O.2     1  UNL1       -0.2512
     15 N          63.3624   81.5309   11.1984 N.am    1  UNL1       -0.2836
     16 H          64.0301   81.1479   11.8122 H       1  UNL1        0.1513
     17 C          64.9720   81.7943   13.2207 C.3     1  UNL1        0.1188
     18 C          62.8030   80.7345   14.1809 C.2     1  UNL1       -0.0034
     19 C          64.2944   80.7217   14.0209 C.2     1  UNL1       -0.0071
     20 C          63.8649   88.3634   14.9151 C.3     1  UNL1        0.0556
     21 C          64.4195   89.7191   14.5916 C.ar    1  UNL1       -0.0198
     22 C          64.6053   90.1317   13.1616 C.ar    1  UNL1       -0.0011
     23 C          65.1598   91.4874   12.8381 C.ar    1  UNL1        0.0363
     24 C          65.5285   92.4305   13.9446 C.ar    1  UNL1        0.1337
     25 O          66.0830   93.7861   13.6211 O.3     1  UNL1       -0.5055
     26 C          65.3427   92.0179   15.3748 C.ar    1  UNL1        0.0363
     27 C          64.7882   90.6622   15.6983 C.ar    1  UNL1       -0.0011
     28 H          66.1991   94.0439   12.7278 H       1  UNL1        0.2922
     29 C          60.6458   87.8367   10.8705 C.3     1  UNL1        0.1217
     30 C          61.0319   88.9502    9.9425 C.ar    1  UNL1        0.0135
     31 C          62.0600   89.9570   10.3659 C.ar    1  UNL1       -0.0012
     32 C          62.4461   91.0704    9.4380 C.ar    1  UNL1       -0.0002
     33 C          61.8040   91.1771    8.0866 C.ar    1  UNL1        0.0015
     34 C          60.7759   90.1703    7.6631 C.ar    1  UNL1        0.0170
     35 C          59.9781   90.0202    6.4018 C.ar    1  UNL1        0.0186
     36 C          59.0990   88.8139    6.5502 C.ar    1  UNL1        0.0759
     37 N          59.3534   88.2186    7.9032 N.ar    1  UNL1       -0.3242
     38 C          58.6883   86.9990    8.4691 C.3     1  UNL1        0.1305
     39 C          60.3898   89.0569    8.5911 C.ar    1  UNL1        0.0575
     40 C          60.0473   90.9186    5.2025 C.ar    1  UNL1        0.0015
     41 C          61.3537   91.1261    4.4952 C.ar    1  UNL1        0.0002
     42 C          61.4228   92.0245    3.2960 C.ar    1  UNL1        0.0045
     43 C          60.1856   92.7154    2.8042 C.ar    1  UNL1        0.0537
     44 C          58.8793   92.5080    3.5115 C.ar    1  UNL1        0.0045
     45 C          58.8101   91.6096    4.7107 C.ar    1  UNL1        0.0002
     46 C          60.2549   93.6138    1.6050 C.2     1  UNL1        0.2495
     47 O          60.0651   95.0932    1.7643 O.2     1  UNL1       -0.2698
     48 N          60.5139   93.0329    0.2465 N.am    1  UNL1       -0.2804
     49 H          60.6385   92.0619    0.1419 H       1  UNL1        0.1552
     50 C          60.5831   93.9314   -0.9526 C.ar    1  UNL1        0.0507
     51 C          59.3203   94.4399   -1.5826 C.ar    1  UNL1        0.0147
     52 C          59.3894   95.3383   -2.7817 C.ar    1  UNL1        0.0014
     53 C          60.7213   95.7283   -3.3509 C.ar    1  UNL1        0.0046
     54 C          61.9841   95.2198   -2.7209 C.ar    1  UNL1        0.0544
     55 C          61.9150   94.3214   -1.5218 C.ar    1  UNL1        0.0192
     56 C          63.3160   95.6098   -3.2901 C.2     1  UNL1        0.2428
     57 N          64.5209   94.7543   -3.0333 N.am    1  UNL1       -0.3253
     58 O          63.4429   96.8554   -4.1162 O.2     1  UNL1       -0.2704
     59 H          64.4377   93.9367   -2.4911 H       1  UNL1        0.1453
     60 H          65.3951   95.0103   -3.4069 H       1  UNL1        0.1453
     61 C          62.7701   80.6840   10.1113 C.3     1  UNL1        0.1177
     62 C          63.0795   79.2175   10.0504 C.ar    1  UNL1       -0.0025
     63 C          63.9852   78.6859    8.9793 C.ar    1  UNL1       -0.0026
     64 C          64.2946   77.2195    8.9184 C.ar    1  UNL1       -0.0003
     65 C          63.6984   76.2846    9.9285 C.ar    1  UNL1       -0.0000
     66 C          62.7927   76.8161   10.9997 C.ar    1  UNL1       -0.0003
     67 C          62.4833   78.2826   11.0606 C.ar    1  UNL1       -0.0026
@<TRIPOS>BOND
     1    18    19    2
     2    19    17    1
     3    17     1    1
     4     1     2    1
     5     2     3    1
     6     3     4    2
     7     3     5   am
     8     5     6    1
     9     6    20    1
    10    20    21    1
    11    21    22   ar
    12    22    23   ar
    13    23    24   ar
    14    24    25    1
    15    24    26   ar
    16    26    27   ar
    17     6     7    1
    18     7     8    2
    19     7     9   am
    20     9    29    1
    21    29    30    1
    22    30    31   ar
    23    31    32   ar
    24    32    33   ar
    25    33    34   ar
    26    34    35   ar
    27    35    40    1
    28    40    41   ar
    29    41    42   ar
    30    42    43   ar
    31    43    46    1
    32    46    47    2
    33    46    48   am
    34    48    50    1
    35    50    51   ar
    36    51    52   ar
    37    52    53   ar
    38    53    54   ar
    39    54    56    1
    40    56    57   am
    41    56    58    2
    42    54    55   ar
    43    43    44   ar
    44    44    45   ar
    45    35    36   ar
    46    36    37   ar
    47    37    38    1
    48    37    39   ar
    49     9    10    1
    50    11    10    1
    51    11    12    1
    52    12    13   am
    53    13    14    2
    54    13    15   am
    55    15    61    1
    56    61    62    1
    57    62    63   ar
    58    63    64   ar
    59    64    65   ar
    60    65    66   ar
    61    66    67   ar
    62    12     1    1
    63    67    62   ar
    64    11     5    1
    65    27    21   ar
    66    39    30   ar
    67    39    34   ar
    68    45    40   ar
    69    55    50   ar
    70    25    28    1
    71    48    49    1
    72    57    59    1
    73    57    60    1
    74    15    16    1
