@<TRIPOS>MOLECULE
*****
 30 34 0 0 0
SMALL
GASTEIGER

@<TRIPOS>ATOM
      1 C          61.3555   87.2317   10.4154 C.ar    1  UNL1        0.0872
      2 C          62.1940   88.3133   11.0294 C.ar    1  UNL1        0.0535
      3 C          63.0957   87.9980   12.1860 C.ar    1  UNL1        0.1349
      4 N          63.1588   86.6010   12.7285 N.ar    1  UNL1       -0.2119
      5 C          62.3202   85.5193   12.1145 C.ar    1  UNL1        0.1637
      6 N          61.4186   85.8347   10.9580 N.ar    1  UNL1       -0.2264
      7 C          59.4226   89.2756    7.6160 C.ar    1  UNL1        0.0207
      8 C          58.6506   88.1779    6.9458 C.ar    1  UNL1        0.0989
      9 N          58.7803   86.7649    7.4321 N.ar    1  UNL1       -0.2423
     10 C          59.6819   86.4495    8.5886 C.ar    1  UNL1        0.1003
     11 C          60.4538   87.5471    9.2588 C.ar    1  UNL1        0.0370
     12 C          60.3242   88.9602    8.7725 C.ar    1  UNL1        0.0046
     13 N          63.9342   89.0796   12.7999 N.pl3   1  UNL1       -0.2931
     14 C          64.5698   88.8654   14.1416 C.3     1  UNL1        0.0935
     15 C          65.4083   89.9470   14.7555 C.3     1  UNL1        0.0375
     16 C          65.6113   91.2429   14.0278 C.3     1  UNL1        0.0611
     17 C          64.9757   91.4571   12.6861 C.3     1  UNL1        0.0375
     18 C          64.1372   90.3754   12.0721 C.3     1  UNL1        0.0935
     19 N          66.4498   92.3245   14.6417 N.3     1  UNL1       -0.2696
     20 C          67.2712   92.0347   15.8629 C.3     1  UNL1        0.1046
     21 C          68.1097   93.1163   16.4769 C.3     1  UNL1        0.1595
     22 O          68.1269   94.4878   15.8696 O.3     1  UNL1       -0.3508
     23 C          67.3055   94.7776   14.6484 C.3     1  UNL1        0.1595
     24 C          66.4669   93.6959   14.0344 C.3     1  UNL1        0.1046
     25 C          62.3833   84.1223   12.6571 C.ar    1  UNL1        0.0389
     26 C          62.2671   83.8853   14.1338 C.ar    1  UNL1        0.0237
     27 C          62.3302   82.4883   14.6763 C.ar    1  UNL1        0.0990
     28 N          62.5095   81.3283   13.7423 N.ar    1  UNL1       -0.2423
     29 C          62.6256   81.5654   12.2657 C.ar    1  UNL1        0.0990
     30 C          62.5625   82.9624   11.7231 C.ar    1  UNL1        0.0237
@<TRIPOS>BOND
     1     7     8   ar
     2     8     9   ar
     3     9    10   ar
     4    10    11   ar
     5    11     1    1
     6     1     2   ar
     7     2     3   ar
     8     3    13    1
     9    13    14    1
    10    14    15    1
    11    15    16    1
    12    16    19    1
    13    19    20    1
    14    20    21    1
    15    21    22    1
    16    22    23    1
    17    23    24    1
    18    16    17    1
    19    17    18    1
    20     3     4   ar
    21     4     5   ar
    22     5    25    1
    23    25    26   ar
    24    26    27   ar
    25    27    28   ar
    26    28    29   ar
    27    29    30   ar
    28     5     6   ar
    29    11    12   ar
    30    12     7   ar
    31     6     1   ar
    32    18    13    1
    33    30    25   ar
    34    24    19    1
@<TRIPOS>MOLECULE
*****
 30 34 0 0 0
SMALL
GASTEIGER

@<TRIPOS>ATOM
      1 C          61.5494   93.6055   -2.7565 C.ar    1  UNL1        0.0872
      2 C          60.1651   94.0505   -3.1246 C.ar    1  UNL1        0.0535
      3 C          59.0840   94.0752   -2.0850 C.ar    1  UNL1        0.1349
      4 N          59.3872   93.6549   -0.6774 N.ar    1  UNL1       -0.2119
      5 C          60.7717   93.2099   -0.3093 C.ar    1  UNL1        0.1637
      6 N          61.8527   93.1852   -1.3488 N.ar    1  UNL1       -0.2264
      7 C          64.8355   92.5685   -4.7254 C.ar    1  UNL1        0.0207
      8 C          64.7928   93.5311   -5.8749 C.ar    1  UNL1        0.0989
      9 N          63.6691   94.5186   -5.9850 N.ar    1  UNL1       -0.2423
     10 C          62.5880   94.5434   -4.9455 C.ar    1  UNL1        0.1003
     11 C          62.6306   93.5807   -3.7960 C.ar    1  UNL1        0.0370
     12 C          63.7544   92.5933   -3.6859 C.ar    1  UNL1        0.0046
     13 N          57.6996   94.5202   -2.4531 N.pl3   1  UNL1       -0.2931
     14 C          56.5423   94.1883   -1.5584 C.3     1  UNL1        0.0935
     15 C          55.1580   94.6333   -1.9265 C.3     1  UNL1        0.0375
     16 C          54.9309   95.4103   -3.1894 C.3     1  UNL1        0.0611
     17 C          56.0882   95.7422   -4.0841 C.3     1  UNL1        0.0375
     18 C          57.4726   95.2971   -3.7160 C.3     1  UNL1        0.0935
     19 N          53.5466   95.8553   -3.5575 N.3     1  UNL1       -0.2696
     20 C          53.2148   96.1693   -4.9862 C.3     1  UNL1        0.1046
     21 C          51.8304   96.6143   -5.3544 C.3     1  UNL1        0.1595
     22 O          50.7778   96.7453   -4.2937 O.3     1  UNL1       -0.3508
     23 C          51.1096   96.4313   -2.8650 C.3     1  UNL1        0.1595
     24 C          52.4941   95.9863   -2.4969 C.3     1  UNL1        0.1046
     25 C          61.0749   92.7896    1.0983 C.ar    1  UNL1        0.0389
     26 C          60.0138   92.8841    2.1543 C.ar    1  UNL1        0.0237
     27 C          60.3170   92.4638    3.5620 C.ar    1  UNL1        0.0990
     28 N          61.6814   91.9491    3.9136 N.ar    1  UNL1       -0.2423
     29 C          62.7425   91.8547    2.8575 C.ar    1  UNL1        0.0990
     30 C          62.4392   92.2750    1.4499 C.ar    1  UNL1        0.0237
@<TRIPOS>BOND
     1     7     8   ar
     2     8     9   ar
     3     9    10   ar
     4    10    11   ar
     5    11     1    1
     6     1     2   ar
     7     2     3   ar
     8     3    13    1
     9    13    14    1
    10    14    15    1
    11    15    16    1
    12    16    19    1
    13    19    20    1
    14    20    21    1
    15    21    22    1
    16    22    23    1
    17    23    24    1
    18    16    17    1
    19    17    18    1
    20     3     4   ar
    21     4     5   ar
    22     5    25    1
    23    25    26   ar
    24    26    27   ar
    25    27    28   ar
    26    28    29   ar
    27    29    30   ar
    28     5     6   ar
    29    11    12   ar
    30    12     7   ar
    31     6     1   ar
    32    18    13    1
    33    30    25   ar
    34    24    19    1
@<TRIPOS>MOLECULE
*****
 30 34 0 0 0
SMALL
GASTEIGER

@<TRIPOS>ATOM
      1 C          62.3956   85.5048   12.2736 C.ar    1  UNL1        0.0872
      2 C          63.2413   86.5908   12.8698 C.ar    1  UNL1        0.0535
      3 C          63.1778   87.9821   12.3128 C.ar    1  UNL1        0.1349
      4 N          62.2686   88.2874   11.1594 N.ar    1  UNL1       -0.2119
      5 C          61.4230   87.2013   10.5631 C.ar    1  UNL1        0.1637
      6 N          61.4865   85.8101   11.1202 N.ar    1  UNL1       -0.2264
      7 C          62.6113   81.5464   12.4604 C.ar    1  UNL1        0.0207
      8 C          62.5861   81.3310   13.9446 C.ar    1  UNL1        0.0989
      9 N          62.4975   82.5067   14.8718 N.ar    1  UNL1       -0.2423
     10 C          62.4340   83.8980   14.3148 C.ar    1  UNL1        0.1003
     11 C          62.4591   84.1135   12.8306 C.ar    1  UNL1        0.0370
     12 C          62.5478   82.9377   11.9034 C.ar    1  UNL1        0.0046
     13 N          64.0234   89.0680   12.9091 N.pl3   1  UNL1       -0.2931
     14 C          64.2417   90.3471   12.1566 C.3     1  UNL1        0.0935
     15 C          65.0874   91.4331   12.7529 C.3     1  UNL1        0.0375
     16 C          65.7147   91.2399   14.1017 C.3     1  UNL1        0.0611
     17 C          65.4963   89.9608   14.8542 C.3     1  UNL1        0.0375
     18 C          64.6506   88.8749   14.2578 C.3     1  UNL1        0.0935
     19 N          66.5603   92.3259   14.6980 N.3     1  UNL1       -0.2696
     20 C          67.4704   92.0203   15.8505 C.3     1  UNL1        0.1046
     21 C          68.3161   93.1062   16.4468 C.3     1  UNL1        0.1595
     22 O          68.2516   94.4979   15.8906 O.3     1  UNL1       -0.3508
     23 C          67.3415   94.8035   14.7380 C.3     1  UNL1        0.1595
     24 C          66.4958   93.7174   14.1417 C.3     1  UNL1        0.1046
     25 C          60.5138   87.5066    9.4098 C.ar    1  UNL1        0.0389
     26 C          60.2792   88.9292    8.9959 C.ar    1  UNL1        0.0237
     27 C          59.3700   89.2345    7.8425 C.ar    1  UNL1        0.0990
     28 N          58.6955   88.1172    7.1030 N.ar    1  UNL1       -0.2423
     29 C          58.9301   86.6947    7.5170 C.ar    1  UNL1        0.0990
     30 C          59.8393   86.3894    8.6703 C.ar    1  UNL1        0.0237
@<TRIPOS>BOND
     1     7     8   ar
     2     8     9   ar
     3     9    10   ar
     4    10    11   ar
     5    11     1    1
     6     1     2   ar
     7     2     3   ar
     8     3    13    1
     9    13    14    1
    10    14    15    1
    11    15    16    1
    12    16    19    1
    13    19    20    1
    14    20    21    1
    15    21    22    1
    16    22    23    1
    17    23    24    1
    18    16    17    1
    19    17    18    1
    20     3     4   ar
    21     4     5   ar
    22     5    25    1
    23    25    26   ar
    24    26    27   ar
    25    27    28   ar
    26    28    29   ar
    27    29    30   ar
    28     5     6   ar
    29    11    12   ar
    30    12     7   ar
    31     6     1   ar
    32    18    13    1
    33    30    25   ar
    34    24    19    1
@<TRIPOS>MOLECULE
*****
 30 34 0 0 0
SMALL
GASTEIGER

@<TRIPOS>ATOM
      1 C          61.6394   94.9613   -0.4693 C.ar    1  UNL1        0.0872
      2 C          60.3151   95.2579   -1.1081 C.ar    1  UNL1        0.0535
      3 C          59.0530   94.7171   -0.5041 C.ar    1  UNL1        0.1349
      4 N          59.1154   93.8797    0.7388 N.ar    1  UNL1       -0.2119
      5 C          60.4398   93.5831    1.3777 C.ar    1  UNL1        0.1637
      6 N          61.7018   94.1239    0.7736 N.ar    1  UNL1       -0.2264
      7 C          64.1865   96.4600   -3.1181 C.ar    1  UNL1        0.0207
      8 C          65.4254   96.5837   -2.2815 C.ar    1  UNL1        0.0989
      9 N          65.4023   96.1666   -0.8409 N.ar    1  UNL1       -0.2423
     10 C          64.1403   95.6258   -0.2368 C.ar    1  UNL1        0.1003
     11 C          62.9015   95.5021   -1.0734 C.ar    1  UNL1        0.0370
     12 C          62.9246   95.9192   -2.5140 C.ar    1  UNL1        0.0046
     13 N          57.7287   95.0137   -1.1429 N.pl3   1  UNL1       -0.2931
     14 C          56.7206   93.9177   -1.3229 C.3     1  UNL1        0.0935
     15 C          55.3963   94.2143   -1.9618 C.3     1  UNL1        0.0375
     16 C          55.0800   95.6069   -2.4207 C.3     1  UNL1        0.0611
     17 C          56.0882   96.7030   -2.2407 C.3     1  UNL1        0.0375
     18 C          57.4126   96.4063   -1.6018 C.3     1  UNL1        0.0935
     19 N          53.7557   95.9035   -3.0595 N.3     1  UNL1       -0.2696
     20 C          53.6711   96.1302   -4.5399 C.3     1  UNL1        0.1046
     21 C          52.3468   96.4268   -5.1787 C.3     1  UNL1        0.1595
     22 O          51.1070   96.4967   -4.3372 O.3     1  UNL1       -0.3508
     23 C          51.1916   96.2701   -2.8568 C.3     1  UNL1        0.1595
     24 C          52.5160   95.9735   -2.2180 C.3     1  UNL1        0.1046
     25 C          60.5022   92.7456    2.6206 C.ar    1  UNL1        0.0389
     26 C          61.7764   92.0458    2.9903 C.ar    1  UNL1        0.0237
     27 C          61.8388   91.2084    4.2332 C.ar    1  UNL1        0.0990
     28 N          60.6269   91.0708    5.1064 N.ar    1  UNL1       -0.2423
     29 C          59.3527   91.7706    4.7367 C.ar    1  UNL1        0.0990
     30 C          59.2904   92.6080    3.4938 C.ar    1  UNL1        0.0237
@<TRIPOS>BOND
     1     7     8   ar
     2     8     9   ar
     3     9    10   ar
     4    10    11   ar
     5    11     1    1
     6     1     2   ar
     7     2     3   ar
     8     3    13    1
     9    13    14    1
    10    14    15    1
    11    15    16    1
    12    16    19    1
    13    19    20    1
    14    20    21    1
    15    21    22    1
    16    22    23    1
    17    23    24    1
    18    16    17    1
    19    17    18    1
    20     3     4   ar
    21     4     5   ar
    22     5    25    1
    23    25    26   ar
    24    26    27   ar
    25    27    28   ar
    26    28    29   ar
    27    29    30   ar
    28     5     6   ar
    29    11    12   ar
    30    12     7   ar
    31     6     1   ar
    32    18    13    1
    33    30    25   ar
    34    24    19    1
@<TRIPOS>MOLECULE
*****
 30 34 0 0 0
SMALL
GASTEIGER

@<TRIPOS>ATOM
      1 C          59.1141   94.0423    0.2440 C.ar    1  UNL1        0.0872
      2 C          59.0053   93.1483    1.4435 C.ar    1  UNL1        0.0535
      3 C          60.1751   92.9892    2.3689 C.ar    1  UNL1        0.1349
      4 N          61.4536   93.7242    2.0949 N.ar    1  UNL1       -0.2119
      5 C          61.5624   94.6183    0.8953 C.ar    1  UNL1        0.1637
      6 N          60.3927   94.7773   -0.0301 N.ar    1  UNL1       -0.2264
      7 C          55.9892   93.1569   -2.0366 C.ar    1  UNL1        0.0207
      8 C          55.6050   94.5194   -2.5324 C.ar    1  UNL1        0.0989
      9 N          56.3904   95.7229   -2.1027 N.ar    1  UNL1       -0.2423
     10 C          57.5601   95.5639   -1.1773 C.ar    1  UNL1        0.1003
     11 C          57.9444   94.2014   -0.6815 C.ar    1  UNL1        0.0370
     12 C          57.1589   92.9979   -1.1112 C.ar    1  UNL1        0.0046
     13 N          60.0662   92.0952    3.5684 N.pl3   1  UNL1       -0.2931
     14 C          58.7413   91.9072    4.2460 C.3     1  UNL1        0.0935
     15 C          58.6324   91.0132    5.4455 C.3     1  UNL1        0.0375
     16 C          59.8486   90.3071    5.9675 C.3     1  UNL1        0.0611
     17 C          61.1736   90.4951    5.2900 C.3     1  UNL1        0.0375
     18 C          61.2824   91.3892    4.0904 C.3     1  UNL1        0.0935
     19 N          59.7398   89.4131    7.1670 N.3     1  UNL1       -0.2696
     20 C          59.1014   88.0617    7.0397 C.3     1  UNL1        0.1046
     21 C          58.9926   87.1677    8.2392 C.3     1  UNL1        0.1595
     22 O          59.5222   87.6250    9.5661 O.3     1  UNL1       -0.3508
     23 C          60.1605   88.9765    9.6934 C.3     1  UNL1        0.1595
     24 C          60.2693   89.8705    8.4938 C.3     1  UNL1        0.1046
     25 C          62.8409   95.3533    0.6212 C.ar    1  UNL1        0.0389
     26 C          63.5763   96.0233    1.7439 C.ar    1  UNL1        0.0237
     27 C          64.8549   96.7583    1.4698 C.ar    1  UNL1        0.0990
     28 N          65.3980   96.8232    0.0730 N.ar    1  UNL1       -0.2423
     29 C          64.6626   96.1532   -1.0496 C.ar    1  UNL1        0.0990
     30 C          63.3841   95.4182   -0.7755 C.ar    1  UNL1        0.0237
@<TRIPOS>BOND
     1     7     8   ar
     2     8     9   ar
     3     9    10   ar
     4    10    11   ar
     5    11     1    1
     6     1     2   ar
     7     2     3   ar
     8     3    13    1
     9    13    14    1
    10    14    15    1
    11    15    16    1
    12    16    19    1
    13    19    20    1
    14    20    21    1
    15    21    22    1
    16    22    23    1
    17    23    24    1
    18    16    17    1
    19    17    18    1
    20     3     4   ar
    21     4     5   ar
    22     5    25    1
    23    25    26   ar
    24    26    27   ar
    25    27    28   ar
    26    28    29   ar
    27    29    30   ar
    28     5     6   ar
    29    11    12   ar
    30    12     7   ar
    31     6     1   ar
    32    18    13    1
    33    30    25   ar
    34    24    19    1
