@<TRIPOS>MOLECULE
*****
 45 49 0 0 0
SMALL
GASTEIGER

@<TRIPOS>ATOM
      1 C          60.6654   89.3923   10.7623 C.3     1  UNL1        0.1443
      2 O          59.9357   89.0149   12.0174 O.3     1  UNL1       -0.3813
      3 H          60.2806   89.5343   12.7605 H       1  UNL1        0.2105
      4 C          60.3169   88.7277    9.4635 C.3     1  UNL1        0.1041
      5 C          59.3041   89.0857    7.0980 C.2     1  UNL1        0.2527
      6 O          58.5275   87.8099    7.2373 O.2     1  UNL1       -0.2724
      7 N          60.1988   89.5446    8.2110 N.am    1  UNL1       -0.3012
      8 H          60.7084   90.3819    8.1195 H       1  UNL1        0.1495
      9 C          59.1859   89.9026    5.8455 C.3     1  UNL1        0.2269
     10 C          57.5012   91.6013    4.8324 C.3     1  UNL1        0.1748
     11 O          58.5084   91.2404    5.8837 O.3     1  UNL1       -0.3418
     12 C          60.0866   87.2462    9.4172 C.3     1  UNL1        0.0484
     13 C          61.2176   86.3022    9.6995 C.ar    1  UNL1       -0.0204
     14 C          61.9876   85.6937    8.5652 C.ar    1  UNL1       -0.0042
     15 C          63.1186   84.7497    8.8474 C.ar    1  UNL1       -0.0003
     16 C          63.4796   84.4142   10.2641 C.ar    1  UNL1        0.0020
     17 C          62.7097   85.0227   11.3986 C.ar    1  UNL1        0.0235
     18 C          61.5787   85.9667   11.1163 C.ar    1  UNL1       -0.0022
     19 C          63.0707   84.6872   12.8153 C.ar    1  UNL1        0.1103
     20 N          63.2002   85.6631   13.9469 N.ar    1  UNL1       -0.2426
     21 C          63.5752   84.8959   15.1801 C.ar    1  UNL1        0.0664
     22 C          63.8071   85.4768   16.5434 C.3     1  UNL1        0.0527
     23 C          63.6775   83.4457   14.8106 C.ar    1  UNL1        0.0516
     24 S          63.3657   83.3168   13.3490 S.2     1  UNL1       -0.0663
     25 C          61.7436   90.4342   10.8061 C.3     1  UNL1        0.1001
     26 N          63.1250   90.0654   11.2594 N.3     1  UNL1       -0.2928
     27 H          63.7719   90.4331   10.5617 H       1  UNL1        0.1236
     28 C          63.6234   90.5261   12.5972 C.3     1  UNL1        0.0849
     29 C          63.1433   89.8530   13.8488 C.3     1  UNL1        0.0604
     30 C          63.6416   90.3137   15.1865 C.3     1  UNL1        0.1363
     31 C          62.6993   89.1867   15.4902 C.3     1  UNL1        0.0402
     32 C          62.9627   89.3617   16.9566 C.3     1  UNL1        0.0072
     33 C          63.9050   90.4886   16.6528 C.3     1  UNL1        0.0402
     34 O          64.6199   91.4474   15.2726 O.3     1  UNL1       -0.4676
     35 C          65.1000   92.1205   14.0210 C.ar    1  UNL1        0.2216
     36 N          66.0784   93.2543   14.1071 N.ar    1  UNL1       -0.2107
     37 C          66.5584   93.9274   12.8556 C.ar    1  UNL1        0.0977
     38 C          66.0601   93.4667   11.5178 C.ar    1  UNL1       -0.0031
     39 C          65.0817   92.3330   11.4317 C.ar    1  UNL1       -0.0011
     40 C          64.6017   91.6599   12.6833 C.ar    1  UNL1        0.0449
     41 C          66.5401   94.1398   10.2662 C.3     1  UNL1        0.0279
     42 C          67.5751   93.4757    9.4072 C.3     1  UNL1        0.0041
     43 C          67.6774   92.3540   10.3977 C.3     1  UNL1        0.0003
     44 C          67.4728   94.5976    8.4167 C.3     1  UNL1        0.0003
     45 C          68.6101   92.8117    8.5483 C.3     1  UNL1        0.0003
@<TRIPOS>BOND
     1    10    11    1
     2    11     9    1
     3     9     5    1
     4     5     6    2
     5     5     7   am
     6     7     4    1
     7     4    12    1
     8    12    13    1
     9    13    14   ar
    10    14    15   ar
    11    15    16   ar
    12    16    17   ar
    13    17    19    1
    14    19    20   ar
    15    20    21   ar
    16    21    22    1
    17    21    23   ar
    18    23    24   ar
    19    17    18   ar
    20     4     1    1
    21     1     2    1
    22     1    25    1
    23    25    26    1
    24    28    26    1
    25    28    29    1
    26    29    30    1
    27    30    31    1
    28    31    32    1
    29    32    33    1
    30    30    34    1
    31    34    35    1
    32    35    36   ar
    33    36    37   ar
    34    37    38   ar
    35    38    41    1
    36    41    42    1
    37    42    43    1
    38    42    44    1
    39    42    45    1
    40    38    39   ar
    41    39    40   ar
    42    18    13   ar
    43    40    28    1
    44    24    19   ar
    45    33    30    1
    46    40    35   ar
    47     7     8    1
    48     2     3    1
    49    26    27    1
@<TRIPOS>MOLECULE
*****
 45 49 0 0 0
SMALL
GASTEIGER

@<TRIPOS>ATOM
      1 C          60.7407   89.6919   10.9152 C.3     1  UNL1        0.1443
      2 O          60.1231   89.3582   12.2408 O.3     1  UNL1       -0.3813
      3 H          60.4657   89.9620   12.9183 H       1  UNL1        0.2105
      4 C          60.3737   88.8990    9.6959 C.3     1  UNL1        0.1041
      5 C          59.3730   89.0546    7.3034 C.2     1  UNL1        0.2527
      6 O          58.5022   87.8674    7.5904 O.2     1  UNL1       -0.2724
      7 N          60.3087   89.5704    8.3562 N.am    1  UNL1       -0.3012
      8 H          60.8802   90.3496    8.1678 H       1  UNL1        0.1495
      9 C          59.3079   89.7261    5.9637 C.3     1  UNL1        0.2269
     10 C          58.4123   91.8815    4.8226 C.3     1  UNL1        0.1748
     11 O          58.1697   90.6484    5.6414 O.3     1  UNL1       -0.3418
     12 C          60.0718   87.4347    9.8165 C.3     1  UNL1        0.0484
     13 C          61.1773   86.4284    9.6937 C.ar    1  UNL1       -0.0204
     14 C          61.9350   86.2999    8.4056 C.ar    1  UNL1       -0.0042
     15 C          63.0406   85.2936    8.2829 C.ar    1  UNL1       -0.0003
     16 C          63.3884   84.4157    9.4483 C.ar    1  UNL1        0.0020
     17 C          62.6307   84.5441   10.7366 C.ar    1  UNL1        0.0235
     18 C          61.5252   85.5505   10.8593 C.ar    1  UNL1       -0.0022
     19 C          62.9786   83.6663   11.9020 C.ar    1  UNL1        0.1103
     20 N          62.5721   82.2333   12.0787 N.ar    1  UNL1       -0.2426
     21 C          63.1363   81.7487   13.3813 C.ar    1  UNL1        0.0664
     22 C          62.9738   80.3722   13.9548 C.3     1  UNL1        0.0527
     23 C          63.8916   82.8821   14.0096 C.ar    1  UNL1        0.0516
     24 S          63.7941   84.0672   13.0953 S.2     1  UNL1       -0.0663
     25 C          61.7253   90.8186   10.8088 C.3     1  UNL1        0.1001
     26 N          63.1976   90.5342   10.8479 N.3     1  UNL1       -0.2928
     27 H          63.5051   90.4402    9.8799 H       1  UNL1        0.1236
     28 C          64.1319   91.5054   11.5067 C.3     1  UNL1        0.0849
     29 C          64.8476   92.5342   10.6825 C.3     1  UNL1        0.0604
     30 C          65.7819   93.5054   11.3412 C.3     1  UNL1        0.1363
     31 C          65.8173   93.8599    9.8841 C.3     1  UNL1        0.0402
     32 C          66.7941   94.9604   10.1757 C.3     1  UNL1        0.0072
     33 C          66.7587   94.6058   11.6328 C.3     1  UNL1        0.0402
     34 O          66.0004   93.4477   12.8241 O.3     1  UNL1       -0.4676
     35 C          65.2847   92.4188   13.6482 C.ar    1  UNL1        0.2216
     36 N          65.5033   92.3612   15.1311 N.ar    1  UNL1       -0.2107
     37 C          64.7875   91.3323   15.9553 C.ar    1  UNL1        0.0977
     38 C          63.8532   90.3611   15.2965 C.ar    1  UNL1       -0.0031
     39 C          63.6347   90.4188   13.8137 C.ar    1  UNL1       -0.0011
     40 C          64.3504   91.4477   12.9895 C.ar    1  UNL1        0.0449
     41 C          63.1375   89.3323   16.1206 C.3     1  UNL1        0.0279
     42 C          63.5677   87.8963   16.0666 C.3     1  UNL1        0.0041
     43 C          62.8592   87.6353   17.3627 C.3     1  UNL1        0.0003
     44 C          64.2763   88.1573   14.7705 C.3     1  UNL1        0.0003
     45 C          63.9979   86.4603   16.0127 C.3     1  UNL1        0.0003
@<TRIPOS>BOND
     1    10    11    1
     2    11     9    1
     3     9     5    1
     4     5     6    2
     5     5     7   am
     6     7     4    1
     7     4    12    1
     8    12    13    1
     9    13    14   ar
    10    14    15   ar
    11    15    16   ar
    12    16    17   ar
    13    17    19    1
    14    19    20   ar
    15    20    21   ar
    16    21    22    1
    17    21    23   ar
    18    23    24   ar
    19    17    18   ar
    20     4     1    1
    21     1     2    1
    22     1    25    1
    23    25    26    1
    24    28    26    1
    25    28    29    1
    26    29    30    1
    27    30    31    1
    28    31    32    1
    29    32    33    1
    30    30    34    1
    31    34    35    1
    32    35    36   ar
    33    36    37   ar
    34    37    38   ar
    35    38    41    1
    36    41    42    1
    37    42    43    1
    38    42    44    1
    39    42    45    1
    40    38    39   ar
    41    39    40   ar
    42    18    13   ar
    43    40    28    1
    44    24    19   ar
    45    33    30    1
    46    40    35   ar
    47     7     8    1
    48     2     3    1
    49    26    27    1
@<TRIPOS>MOLECULE
*****
 45 49 0 0 0
SMALL
GASTEIGER

@<TRIPOS>ATOM
      1 C          60.5489   89.5981   11.7705 C.3     1  UNL1        0.1443
      2 O          59.4468   90.6029   11.9310 O.3     1  UNL1       -0.3813
      3 H          58.6312   90.2535   11.5391 H       1  UNL1        0.2105
      4 C          61.9210   89.8995   12.2962 C.3     1  UNL1        0.1041
      5 C          63.1129   89.2910   14.5231 C.2     1  UNL1        0.2527
      6 O          63.8907   88.2218   13.8146 O.2     1  UNL1       -0.2724
      7 N          62.1281   90.1299   13.7638 N.am    1  UNL1       -0.3012
      8 H          61.6176   90.8316   14.2288 H       1  UNL1        0.1495
      9 C          63.3200   89.5214   15.9907 C.3     1  UNL1        0.2269
     10 C          64.2139   91.9156   16.4584 C.3     1  UNL1        0.1748
     11 O          63.1240   90.8912   16.5699 O.3     1  UNL1       -0.3418
     12 C          63.0861   89.9706   11.3541 C.3     1  UNL1        0.0484
     13 C          64.0419   91.1242   11.4290 C.ar    1  UNL1       -0.0204
     14 C          64.0788   92.1403   10.3262 C.ar    1  UNL1       -0.0042
     15 C          65.0346   93.2940   10.4011 C.ar    1  UNL1       -0.0003
     16 C          65.9534   93.4316   11.5787 C.ar    1  UNL1        0.0020
     17 C          65.9164   92.4154   12.6816 C.ar    1  UNL1        0.0235
     18 C          64.9607   91.2618   12.6067 C.ar    1  UNL1       -0.0022
     19 C          66.8352   92.5530   13.8592 C.ar    1  UNL1        0.1103
     20 N          67.4884   93.8205   14.3244 N.ar    1  UNL1       -0.2426
     21 C          68.3190   93.4981   15.5311 C.ar    1  UNL1        0.0664
     22 C          69.1446   94.4716   16.3190 C.3     1  UNL1        0.0527
     23 C          68.1791   92.0313   15.8117 C.ar    1  UNL1        0.0516
     24 S          67.2621   91.4472   14.7783 S.2     1  UNL1       -0.0663
     25 C          60.2788   88.2917   11.0844 C.3     1  UNL1        0.1001
     26 N          60.8910   87.0275   11.6107 N.3     1  UNL1       -0.2928
     27 H          60.1371   86.4927   12.0420 H       1  UNL1        0.1236
     28 C          61.6048   86.0949   10.6776 C.3     1  UNL1        0.0849
     29 C          61.2751   86.1003    9.2143 C.3     1  UNL1        0.0604
     30 C          61.9888   85.1677    8.2811 C.3     1  UNL1        0.1363
     31 C          61.0383   85.9353    7.4109 C.3     1  UNL1        0.0402
     32 C          61.5226   85.1754    6.2116 C.3     1  UNL1        0.0072
     33 C          62.4731   84.4078    7.0819 C.3     1  UNL1        0.0402
     34 O          63.0323   84.2296    8.8113 O.3     1  UNL1       -0.4676
     35 C          63.3620   84.2241   10.2747 C.ar    1  UNL1        0.2216
     36 N          64.4055   83.2860   10.8048 N.ar    1  UNL1       -0.2107
     37 C          64.7352   83.2805   12.2682 C.ar    1  UNL1        0.0977
     38 C          64.0214   84.2132   13.2013 C.ar    1  UNL1       -0.0031
     39 C          62.9779   85.1513   12.6711 C.ar    1  UNL1       -0.0011
     40 C          62.6482   85.1568   11.2078 C.ar    1  UNL1        0.0449
     41 C          64.3511   84.2077   14.6646 C.3     1  UNL1        0.0279
     42 C          63.3635   84.7445   15.6579 C.3     1  UNL1        0.0041
     43 C          64.2586   85.9210   15.9121 C.3     1  UNL1        0.0003
     44 C          62.4683   83.5679   15.4037 C.3     1  UNL1        0.0003
     45 C          62.3759   85.2813   16.6512 C.3     1  UNL1        0.0003
@<TRIPOS>BOND
     1    10    11    1
     2    11     9    1
     3     9     5    1
     4     5     6    2
     5     5     7   am
     6     7     4    1
     7     4    12    1
     8    12    13    1
     9    13    14   ar
    10    14    15   ar
    11    15    16   ar
    12    16    17   ar
    13    17    19    1
    14    19    20   ar
    15    20    21   ar
    16    21    22    1
    17    21    23   ar
    18    23    24   ar
    19    17    18   ar
    20     4     1    1
    21     1     2    1
    22     1    25    1
    23    25    26    1
    24    28    26    1
    25    28    29    1
    26    29    30    1
    27    30    31    1
    28    31    32    1
    29    32    33    1
    30    30    34    1
    31    34    35    1
    32    35    36   ar
    33    36    37   ar
    34    37    38   ar
    35    38    41    1
    36    41    42    1
    37    42    43    1
    38    42    44    1
    39    42    45    1
    40    38    39   ar
    41    39    40   ar
    42    18    13   ar
    43    40    28    1
    44    24    19   ar
    45    33    30    1
    46    40    35   ar
    47     7     8    1
    48     2     3    1
    49    26    27    1
@<TRIPOS>MOLECULE
*****
 45 49 0 0 0
SMALL
GASTEIGER

@<TRIPOS>ATOM
      1 C          59.9667   89.0596   10.7701 C.3     1  UNL1        0.1443
      2 O          59.2988   90.0523   11.6747 O.3     1  UNL1       -0.3813
      3 H          58.7812   89.5808   12.3460 H       1  UNL1        0.2105
      4 C          60.8315   89.5368    9.6412 C.3     1  UNL1        0.1041
      5 C          59.4599   89.3230    7.4450 C.2     1  UNL1        0.2527
      6 O          59.3385   87.8441    7.6649 O.2     1  UNL1       -0.2724
      7 N          60.2064   90.1693    8.4332 N.am    1  UNL1       -0.3012
      8 H          60.2860   91.1399    8.2889 H       1  UNL1        0.1495
      9 C          58.8348   89.9554    6.2370 C.3     1  UNL1        0.2269
     10 C          59.0778   91.9286    4.5644 C.3     1  UNL1        0.1748
     11 O          59.6762   90.7616    5.2924 O.3     1  UNL1       -0.3418
     12 C          62.3213   89.3816    9.7203 C.3     1  UNL1        0.0484
     13 C          63.1111   90.2091   10.6906 C.ar    1  UNL1       -0.0204
     14 C          62.9868   89.9591   12.1644 C.ar    1  UNL1       -0.0042
     15 C          63.7766   90.7865   13.1347 C.ar    1  UNL1       -0.0003
     16 C          64.6907   91.8639   12.6313 C.ar    1  UNL1        0.0020
     17 C          64.8150   92.1140   11.1575 C.ar    1  UNL1        0.0235
     18 C          64.0252   91.2865   10.1871 C.ar    1  UNL1       -0.0022
     19 C          65.7292   93.1914   10.6540 C.ar    1  UNL1        0.1103
     20 N          65.4599   94.6664   10.6949 N.ar    1  UNL1       -0.2426
     21 C          66.6374   95.3696   10.0875 C.ar    1  UNL1        0.0664
     22 C          66.7909   96.8528    9.9249 C.3     1  UNL1        0.0527
     23 C          67.6344   94.3291    9.6712 C.ar    1  UNL1        0.0516
     24 S          67.0731   92.9829   10.0213 S.2     1  UNL1       -0.0663
     25 C          59.7699   87.5895   10.9944 C.3     1  UNL1        0.1001
     26 N          60.8834   86.7622   11.5649 N.3     1  UNL1       -0.2928
     27 H          60.4715   86.1728   12.2883 H       1  UNL1        0.1236
     28 C          61.6799   85.8581   10.6712 C.3     1  UNL1        0.0849
     29 C          61.4402   85.8662    9.1905 C.3     1  UNL1        0.0604
     30 C          62.2366   84.9622    8.2969 C.3     1  UNL1        0.1363
     31 C          61.3190   85.7093    7.3750 C.3     1  UNL1        0.0402
     32 C          61.8976   84.9736    6.2028 C.3     1  UNL1        0.0072
     33 C          62.8153   84.2265    7.1248 C.3     1  UNL1        0.0402
     34 O          63.2727   84.0502    8.8840 O.3     1  UNL1       -0.4676
     35 C          63.5124   84.0422   10.3648 C.ar    1  UNL1        0.2216
     36 N          64.5485   83.1301   10.9518 N.ar    1  UNL1       -0.2107
     37 C          64.7882   83.1220   12.4325 C.ar    1  UNL1        0.0977
     38 C          63.9917   84.0261   13.3262 C.ar    1  UNL1       -0.0031
     39 C          62.9557   84.9381   12.7391 C.ar    1  UNL1       -0.0011
     40 C          62.7160   84.9461   11.2584 C.ar    1  UNL1        0.0449
     41 C          64.2314   84.0180   14.8069 C.3     1  UNL1        0.0279
     42 C          63.8201   85.1960   15.6396 C.3     1  UNL1        0.0041
     43 C          62.6092   84.4435   16.1058 C.3     1  UNL1        0.0003
     44 C          65.0312   85.9484   15.1734 C.3     1  UNL1        0.0003
     45 C          63.4088   86.3738   16.4723 C.3     1  UNL1        0.0003
@<TRIPOS>BOND
     1    10    11    1
     2    11     9    1
     3     9     5    1
     4     5     6    2
     5     5     7   am
     6     7     4    1
     7     4    12    1
     8    12    13    1
     9    13    14   ar
    10    14    15   ar
    11    15    16   ar
    12    16    17   ar
    13    17    19    1
    14    19    20   ar
    15    20    21   ar
    16    21    22    1
    17    21    23   ar
    18    23    24   ar
    19    17    18   ar
    20     4     1    1
    21     1     2    1
    22     1    25    1
    23    25    26    1
    24    28    26    1
    25    28    29    1
    26    29    30    1
    27    30    31    1
    28    31    32    1
    29    32    33    1
    30    30    34    1
    31    34    35    1
    32    35    36   ar
    33    36    37   ar
    34    37    38   ar
    35    38    41    1
    36    41    42    1
    37    42    43    1
    38    42    44    1
    39    42    45    1
    40    38    39   ar
    41    39    40   ar
    42    18    13   ar
    43    40    28    1
    44    24    19   ar
    45    33    30    1
    46    40    35   ar
    47     7     8    1
    48     2     3    1
    49    26    27    1
@<TRIPOS>MOLECULE
*****
 45 49 0 0 0
SMALL
GASTEIGER

@<TRIPOS>ATOM
      1 C          61.9671   89.9391   12.1417 C.3     1  UNL1        0.1443
      2 O          62.1989   90.7265   10.8861 O.3     1  UNL1       -0.3813
      3 H          61.3764   90.7669   10.3734 H       1  UNL1        0.2105
      4 C          63.0904   89.7290   13.1133 C.3     1  UNL1        0.1041
      5 C          63.9665   87.8260   14.6498 C.2     1  UNL1        0.2527
      6 O          63.6323   88.6484   15.8589 O.2     1  UNL1       -0.2724
      7 N          63.6955   88.3663   13.2770 N.am    1  UNL1       -0.3012
      8 H          63.9148   87.8265   12.4834 H       1  UNL1        0.1495
      9 C          64.5716   86.4632   14.8134 C.3     1  UNL1        0.2269
     10 C          63.0390   85.7336   16.7804 C.3     1  UNL1        0.1748
     11 O          63.8196   85.3917   15.5460 O.3     1  UNL1       -0.3418
     12 C          63.6085   90.8817   13.9212 C.3     1  UNL1        0.0484
     13 C          65.0183   91.3573   13.7310 C.ar    1  UNL1       -0.0204
     14 C          66.0241   91.1807   14.8297 C.ar    1  UNL1       -0.0042
     15 C          67.4339   91.6563   14.6395 C.ar    1  UNL1       -0.0003
     16 C          67.8380   92.3085   13.3505 C.ar    1  UNL1        0.0020
     17 C          66.8322   92.4850   12.2517 C.ar    1  UNL1        0.0235
     18 C          65.4224   92.0094   12.4420 C.ar    1  UNL1       -0.0022
     19 C          67.2363   93.1371   10.9628 C.ar    1  UNL1        0.1103
     20 N          67.0023   94.5707   10.5887 N.ar    1  UNL1       -0.2426
     21 C          67.5667   94.7897    9.2163 C.ar    1  UNL1        0.0664
     22 C          67.5510   96.0804    8.4522 C.3     1  UNL1        0.0527
     23 C          68.1495   93.4915    8.7422 C.ar    1  UNL1        0.0516
     24 S          67.9453   92.4701    9.8216 S.2     1  UNL1       -0.0663
     25 C          60.6120   89.3617   12.4255 C.3     1  UNL1        0.1001
     26 N          60.2518   88.0022   11.9041 N.3     1  UNL1       -0.2928
     27 H          59.2571   87.8705   12.0876 H       1  UNL1        0.1236
     28 C          60.4731   87.6706   10.4580 C.3     1  UNL1        0.0849
     29 C          59.7985   88.4809    9.3911 C.3     1  UNL1        0.0604
     30 C          60.0197   88.1494    7.9450 C.3     1  UNL1        0.1363
     31 C          59.0866   89.3239    7.9357 C.3     1  UNL1        0.0402
     32 C          59.0656   89.2953    6.4361 C.3     1  UNL1        0.0072
     33 C          59.9987   88.1209    6.4454 C.3     1  UNL1        0.0402
     34 O          60.9155   87.0076    7.5659 O.3     1  UNL1       -0.4676
     35 C          61.5902   86.1974    8.6328 C.ar    1  UNL1        0.2216
     36 N          62.4860   85.0555    8.2537 N.ar    1  UNL1       -0.2107
     37 C          63.1607   84.2453    9.3206 C.ar    1  UNL1        0.0977
     38 C          62.9394   84.5768   10.7667 C.ar    1  UNL1       -0.0031
     39 C          62.0436   85.7186   11.1458 C.ar    1  UNL1       -0.0011
     40 C          61.3689   86.5289   10.0789 C.ar    1  UNL1        0.0449
     41 C          63.6140   83.7666   11.8337 C.3     1  UNL1        0.0279
     42 C          63.0147   82.4656   12.2790 C.3     1  UNL1        0.0041
     43 C          63.5124   81.8075   11.0264 C.3     1  UNL1        0.0003
     44 C          62.5169   83.1237   13.5317 C.3     1  UNL1        0.0003
     45 C          62.4154   81.1646   12.7243 C.3     1  UNL1        0.0003
@<TRIPOS>BOND
     1    10    11    1
     2    11     9    1
     3     9     5    1
     4     5     6    2
     5     5     7   am
     6     7     4    1
     7     4    12    1
     8    12    13    1
     9    13    14   ar
    10    14    15   ar
    11    15    16   ar
    12    16    17   ar
    13    17    19    1
    14    19    20   ar
    15    20    21   ar
    16    21    22    1
    17    21    23   ar
    18    23    24   ar
    19    17    18   ar
    20     4     1    1
    21     1     2    1
    22     1    25    1
    23    25    26    1
    24    28    26    1
    25    28    29    1
    26    29    30    1
    27    30    31    1
    28    31    32    1
    29    32    33    1
    30    30    34    1
    31    34    35    1
    32    35    36   ar
    33    36    37   ar
    34    37    38   ar
    35    38    41    1
    36    41    42    1
    37    42    43    1
    38    42    44    1
    39    42    45    1
    40    38    39   ar
    41    39    40   ar
    42    18    13   ar
    43    40    28    1
    44    24    19   ar
    45    33    30    1
    46    40    35   ar
    47     7     8    1
    48     2     3    1
    49    26    27    1
@<TRIPOS>MOLECULE
*****
 45 49 0 0 0
SMALL
GASTEIGER

@<TRIPOS>ATOM
      1 C          60.9796   89.5601    9.6135 C.3     1  UNL1        0.1443
      2 O          60.2921   90.0565    8.3762 O.3     1  UNL1       -0.3813
      3 H          60.6551   90.9216    8.1295 H       1  UNL1        0.2105
      4 C          60.5973   88.2352   10.2036 C.3     1  UNL1        0.1041
      5 C          59.2494   89.3277   12.1373 C.2     1  UNL1        0.2527
      6 O          59.0428   90.5550   11.2999 O.2     1  UNL1       -0.2724
      7 N          60.0267   88.1679   11.5892 N.am    1  UNL1       -0.3012
      8 H          60.1623   87.3624   12.1388 H       1  UNL1        0.1495
      9 C          58.6788   89.2604   13.5229 C.3     1  UNL1        0.2269
     10 C          56.3440   88.1602   13.2261 C.3     1  UNL1        0.1748
     11 O          57.6949   88.1850   13.8774 O.3     1  UNL1       -0.3418
     12 C          60.7857   86.9775    9.4081 C.3     1  UNL1        0.0484
     13 C          61.7930   85.9564    9.8469 C.ar    1  UNL1       -0.0204
     14 C          62.5228   85.1357    8.8252 C.ar    1  UNL1       -0.0042
     15 C          63.5301   84.1145    9.2640 C.ar    1  UNL1       -0.0003
     16 C          63.8076   83.9140   10.7243 C.ar    1  UNL1        0.0020
     17 C          63.0778   84.7347   11.7461 C.ar    1  UNL1        0.0235
     18 C          62.0705   85.7559   11.3073 C.ar    1  UNL1       -0.0022
     19 C          63.3553   84.5342   13.2064 C.ar    1  UNL1        0.1103
     20 N          63.1518   85.5509   14.2903 N.ar    1  UNL1       -0.2426
     21 C          63.5558   84.9268   15.5931 C.ar    1  UNL1        0.0664
     22 C          63.5139   85.5889   16.9383 C.3     1  UNL1        0.0527
     23 C          64.0089   83.5243   15.3144 C.ar    1  UNL1        0.0516
     24 S          63.8850   83.2817   13.8394 S.2     1  UNL1       -0.0663
     25 C          62.0495   90.3888   10.2606 C.3     1  UNL1        0.1001
     26 N          63.1380   89.7243   11.0504 N.3     1  UNL1       -0.2928
     27 H          63.9492   89.6578   10.4356 H       1  UNL1        0.1236
     28 C          63.6157   90.3383   12.3329 C.3     1  UNL1        0.0849
     29 C          63.2059   89.7434   13.6475 C.3     1  UNL1        0.0604
     30 C          63.6836   90.3573   14.9301 C.3     1  UNL1        0.1363
     31 C          62.8363   89.1925   15.3491 C.3     1  UNL1        0.0402
     32 C          63.1039   89.5160   16.7892 C.3     1  UNL1        0.0072
     33 C          63.9512   90.6807   16.3702 C.3     1  UNL1        0.0402
     34 O          64.5712   91.5660   14.8980 O.3     1  UNL1       -0.4676
     35 C          64.9811   92.1608   13.5834 C.ar    1  UNL1        0.2216
     36 N          65.8688   93.3696   13.5514 N.ar    1  UNL1       -0.2107
     37 C          66.2787   93.9645   12.2368 C.ar    1  UNL1        0.0977
     38 C          65.8009   93.3505   10.9542 C.ar    1  UNL1       -0.0031
     39 C          64.9133   92.1418   10.9863 C.ar    1  UNL1       -0.0011
     40 C          64.5034   91.5470   12.3009 C.ar    1  UNL1        0.0449
     41 C          66.2108   93.9454    9.6397 C.3     1  UNL1        0.0279
     42 C          66.7101   95.3586    9.5791 C.3     1  UNL1        0.0041
     43 C          65.3712   95.8515   10.0420 C.3     1  UNL1        0.0003
     44 C          68.0491   94.8657    9.1161 C.3     1  UNL1        0.0003
     45 C          67.2093   96.7718    9.5185 C.3     1  UNL1        0.0003
@<TRIPOS>BOND
     1    10    11    1
     2    11     9    1
     3     9     5    1
     4     5     6    2
     5     5     7   am
     6     7     4    1
     7     4    12    1
     8    12    13    1
     9    13    14   ar
    10    14    15   ar
    11    15    16   ar
    12    16    17   ar
    13    17    19    1
    14    19    20   ar
    15    20    21   ar
    16    21    22    1
    17    21    23   ar
    18    23    24   ar
    19    17    18   ar
    20     4     1    1
    21     1     2    1
    22     1    25    1
    23    25    26    1
    24    28    26    1
    25    28    29    1
    26    29    30    1
    27    30    31    1
    28    31    32    1
    29    32    33    1
    30    30    34    1
    31    34    35    1
    32    35    36   ar
    33    36    37   ar
    34    37    38   ar
    35    38    41    1
    36    41    42    1
    37    42    43    1
    38    42    44    1
    39    42    45    1
    40    38    39   ar
    41    39    40   ar
    42    18    13   ar
    43    40    28    1
    44    24    19   ar
    45    33    30    1
    46    40    35   ar
    47     7     8    1
    48     2     3    1
    49    26    27    1
@<TRIPOS>MOLECULE
*****
 45 49 0 0 0
SMALL
GASTEIGER

@<TRIPOS>ATOM
      1 C          63.3115   91.0273   12.1584 C.3     1  UNL1        0.1443
      2 O          62.2104   90.4771   13.0156 O.3     1  UNL1       -0.3813
      3 H          61.5032   90.1295   12.4498 H       1  UNL1        0.2105
      4 C          64.5294   91.6276   12.7958 C.3     1  UNL1        0.1041
      5 C          66.0719   93.1889   11.4055 C.2     1  UNL1        0.2527
      6 O          66.7251   91.9901   10.7840 O.2     1  UNL1       -0.2724
      7 N          64.9741   93.0076   12.4114 N.am    1  UNL1       -0.3012
      8 H          64.5454   93.7944   12.8193 H       1  UNL1        0.1495
      9 C          66.5166   94.5689   11.0211 C.3     1  UNL1        0.2269
     10 C          67.3869   94.7543    8.5801 C.3     1  UNL1        0.1748
     11 O          67.6512   94.7499   10.0567 O.3     1  UNL1       -0.3418
     12 C          65.3026   90.8478   13.8176 C.3     1  UNL1        0.0484
     13 C          64.5844   89.9292   14.7610 C.ar    1  UNL1       -0.0204
     14 C          63.8611   90.4903   15.9493 C.ar    1  UNL1       -0.0042
     15 C          63.1429   89.5717   16.8928 C.ar    1  UNL1       -0.0003
     16 C          63.1479   88.0918   16.6480 C.ar    1  UNL1        0.0020
     17 C          63.8711   87.5306   15.4597 C.ar    1  UNL1        0.0235
     18 C          64.5893   88.4492   14.5162 C.ar    1  UNL1       -0.0022
     19 C          63.8761   86.0507   15.2149 C.ar    1  UNL1        0.1103
     20 N          62.6771   85.1496   15.2356 N.ar    1  UNL1       -0.2426
     21 C          63.1409   83.7541   14.9399 C.ar    1  UNL1        0.0664
     22 C          62.2717   82.5342   14.8615 C.3     1  UNL1        0.0527
     23 C          64.6265   83.7927   14.7364 C.ar    1  UNL1        0.0516
     24 S          65.0809   85.2121   14.9064 S.2     1  UNL1       -0.0663
     25 C          63.1947   90.9772   10.6637 C.3     1  UNL1        0.1001
     26 N          61.9011   90.5650   10.0259 N.3     1  UNL1       -0.2928
     27 H          61.8926   90.9693    9.0895 H       1  UNL1        0.1236
     28 C          61.5708   89.1099    9.8724 C.3     1  UNL1        0.0849
     29 C          62.2351   88.0931   10.7526 C.3     1  UNL1        0.0604
     30 C          61.9048   86.6380   10.5992 C.3     1  UNL1        0.1363
     31 C          62.9155   86.6920   11.7063 C.3     1  UNL1        0.0402
     32 C          62.8443   85.2000   11.8440 C.3     1  UNL1        0.0072
     33 C          61.8336   85.1460   10.7369 C.3     1  UNL1        0.0402
     34 O          60.9101   86.1998    9.5655 O.3     1  UNL1       -0.4676
     35 C          60.2458   87.2166    8.6853 C.ar    1  UNL1        0.2216
     36 N          59.2510   86.7782    7.6516 N.ar    1  UNL1       -0.2107
     37 C          58.5867   87.7950    6.7714 C.ar    1  UNL1        0.0977
     38 C          58.9171   89.2502    6.9249 C.ar    1  UNL1       -0.0031
     39 C          59.9117   89.6884    7.9586 C.ar    1  UNL1       -0.0011
     40 C          60.5761   88.6716    8.8388 C.ar    1  UNL1        0.0449
     41 C          58.2527   90.2670    6.0447 C.3     1  UNL1        0.0279
     42 C          59.0815   91.1403    5.1500 C.3     1  UNL1        0.0041
     43 C          57.8661   91.9548    4.8193 C.3     1  UNL1        0.0003
     44 C          60.2969   90.3257    5.4806 C.3     1  UNL1        0.0003
     45 C          59.9101   92.0136    4.2552 C.3     1  UNL1        0.0003
@<TRIPOS>BOND
     1    10    11    1
     2    11     9    1
     3     9     5    1
     4     5     6    2
     5     5     7   am
     6     7     4    1
     7     4    12    1
     8    12    13    1
     9    13    14   ar
    10    14    15   ar
    11    15    16   ar
    12    16    17   ar
    13    17    19    1
    14    19    20   ar
    15    20    21   ar
    16    21    22    1
    17    21    23   ar
    18    23    24   ar
    19    17    18   ar
    20     4     1    1
    21     1     2    1
    22     1    25    1
    23    25    26    1
    24    28    26    1
    25    28    29    1
    26    29    30    1
    27    30    31    1
    28    31    32    1
    29    32    33    1
    30    30    34    1
    31    34    35    1
    32    35    36   ar
    33    36    37   ar
    34    37    38   ar
    35    38    41    1
    36    41    42    1
    37    42    43    1
    38    42    44    1
    39    42    45    1
    40    38    39   ar
    41    39    40   ar
    42    18    13   ar
    43    40    28    1
    44    24    19   ar
    45    33    30    1
    46    40    35   ar
    47     7     8    1
    48     2     3    1
    49    26    27    1
@<TRIPOS>MOLECULE
*****
 45 49 0 0 0
SMALL
GASTEIGER

@<TRIPOS>ATOM
      1 C          64.1629   85.7088   14.8968 C.3     1  UNL1        0.1443
      2 O          64.3937   85.1628   16.2747 O.3     1  UNL1       -0.3813
      3 H          64.8294   85.8360   16.8204 H       1  UNL1        0.2105
      4 C          63.4992   84.8583   13.8546 C.3     1  UNL1        0.1041
      5 C          63.0951   82.2965   14.0085 C.2     1  UNL1        0.2527
      6 O          61.7510   82.5457   14.6262 O.2     1  UNL1       -0.2724
      7 N          63.9692   83.4528   13.6227 N.am    1  UNL1       -0.3012
      8 H          64.8513   83.2893   13.2174 H       1  UNL1        0.1495
      9 C          63.5650   80.8910   13.7767 C.3     1  UNL1        0.2269
     10 C          62.8858   80.4945   11.3005 C.3     1  UNL1        0.1748
     11 O          62.9049   80.0424   12.7306 O.3     1  UNL1       -0.3418
     12 C          62.3656   85.4134   13.0442 C.3     1  UNL1        0.0484
     13 C          62.4127   85.3494   11.5463 C.ar    1  UNL1       -0.0204
     14 C          63.4184   84.4699   10.8644 C.ar    1  UNL1       -0.0042
     15 C          63.4655   84.4060    9.3665 C.ar    1  UNL1       -0.0003
     16 C          62.5069   85.2215    8.5505 C.ar    1  UNL1        0.0020
     17 C          61.5011   86.1010    9.2323 C.ar    1  UNL1        0.0235
     18 C          61.4540   86.1650   10.7302 C.ar    1  UNL1       -0.0022
     19 C          60.5425   86.9165    8.4163 C.ar    1  UNL1        0.1103
     20 N          60.7439   88.3370    7.9786 N.ar    1  UNL1       -0.2426
     21 C          59.5401   88.7531    7.1865 C.ar    1  UNL1        0.0664
     22 C          59.3203   90.0966    6.5568 C.3     1  UNL1        0.0527
     23 C          58.5946   87.5898    7.1346 C.ar    1  UNL1        0.0516
     24 S          59.2141   86.4547    7.8947 S.2     1  UNL1       -0.0663
     25 C          64.5958   87.1052   14.5611 C.3     1  UNL1        0.1001
     26 N          63.6649   88.2569   14.8001 N.3     1  UNL1       -0.2928
     27 H          64.0194   88.7579   15.6147 H       1  UNL1        0.1236
     28 C          63.4452   89.2793   13.7247 C.3     1  UNL1        0.0849
     29 C          62.2170   89.2128   12.8662 C.3     1  UNL1        0.0604
     30 C          61.9973   90.2352   11.7908 C.3     1  UNL1        0.1363
     31 C          60.8067   89.3262   11.7113 C.3     1  UNL1        0.0402
     32 C          60.2603   90.1411   10.5767 C.3     1  UNL1        0.0072
     33 C          61.4508   91.0501   10.6562 C.3     1  UNL1        0.0402
     34 O          63.0058   91.3241   11.5740 O.3     1  UNL1       -0.4676
     35 C          64.2341   91.3906   12.4325 C.ar    1  UNL1        0.2216
     36 N          65.2427   92.4796   12.2156 N.ar    1  UNL1       -0.2107
     37 C          66.4709   92.5461   13.0741 C.ar    1  UNL1        0.0977
     38 C          66.6906   91.5237   14.1495 C.ar    1  UNL1       -0.0031
     39 C          65.6820   90.4348   14.3663 C.ar    1  UNL1       -0.0011
     40 C          64.4538   90.3682   13.5078 C.ar    1  UNL1        0.0449
     41 C          67.9188   91.5902   15.0080 C.3     1  UNL1        0.0279
     42 C          68.3824   92.9086   15.5530 C.3     1  UNL1        0.0041
     43 C          69.6441   92.7971   14.7494 C.3     1  UNL1        0.0003
     44 C          67.1206   93.0201   16.3566 C.3     1  UNL1        0.0003
     45 C          68.8460   94.2269   16.0979 C.3     1  UNL1        0.0003
@<TRIPOS>BOND
     1    10    11    1
     2    11     9    1
     3     9     5    1
     4     5     6    2
     5     5     7   am
     6     7     4    1
     7     4    12    1
     8    12    13    1
     9    13    14   ar
    10    14    15   ar
    11    15    16   ar
    12    16    17   ar
    13    17    19    1
    14    19    20   ar
    15    20    21   ar
    16    21    22    1
    17    21    23   ar
    18    23    24   ar
    19    17    18   ar
    20     4     1    1
    21     1     2    1
    22     1    25    1
    23    25    26    1
    24    28    26    1
    25    28    29    1
    26    29    30    1
    27    30    31    1
    28    31    32    1
    29    32    33    1
    30    30    34    1
    31    34    35    1
    32    35    36   ar
    33    36    37   ar
    34    37    38   ar
    35    38    41    1
    36    41    42    1
    37    42    43    1
    38    42    44    1
    39    42    45    1
    40    38    39   ar
    41    39    40   ar
    42    18    13   ar
    43    40    28    1
    44    24    19   ar
    45    33    30    1
    46    40    35   ar
    47     7     8    1
    48     2     3    1
    49    26    27    1
@<TRIPOS>MOLECULE
*****
 45 49 0 0 0
SMALL
GASTEIGER

@<TRIPOS>ATOM
      1 C          60.9587   89.6427    9.6074 C.3     1  UNL1        0.1443
      2 O          60.0322   90.4288    8.7279 O.3     1  UNL1       -0.3813
      3 H          60.4680   91.2502    8.4516 H       1  UNL1        0.2105
      4 C          60.5192   88.3236   10.1703 C.3     1  UNL1        0.1041
      5 C          59.4027   89.3453   12.2820 C.2     1  UNL1        0.2527
      6 O          59.0613   90.5812   11.5035 O.2     1  UNL1       -0.2724
      7 N          60.1316   88.2165   11.6154 N.am    1  UNL1       -0.3012
      8 H          60.3557   87.4053   12.1263 H       1  UNL1        0.1495
      9 C          59.0150   89.2382   13.7271 C.3     1  UNL1        0.2269
     10 C          56.6689   88.2030   13.3095 C.3     1  UNL1        0.1748
     11 O          57.9129   88.3087   14.1411 O.3     1  UNL1       -0.3418
     12 C          60.4674   87.1116    9.2881 C.3     1  UNL1        0.0484
     13 C          61.5264   86.0554    9.4018 C.ar    1  UNL1       -0.0204
     14 C          62.4753   85.8192    8.2643 C.ar    1  UNL1       -0.0042
     15 C          63.5343   84.7629    8.3780 C.ar    1  UNL1       -0.0003
     16 C          63.6444   83.9429    9.6291 C.ar    1  UNL1        0.0020
     17 C          62.6955   84.1791   10.7667 C.ar    1  UNL1        0.0235
     18 C          61.6365   85.2353   10.6530 C.ar    1  UNL1       -0.0022
     19 C          62.8057   83.3590   12.0178 C.ar    1  UNL1        0.1103
     20 N          62.6213   81.8738   12.1176 N.ar    1  UNL1       -0.2426
     21 C          62.8212   81.4771   13.5503 C.ar    1  UNL1        0.0664
     22 C          62.7293   80.0848   14.1007 C.3     1  UNL1        0.0527
     23 C          63.1291   82.7172   14.3360 C.ar    1  UNL1        0.0516
     24 S          63.1195   83.8803   13.3888 S.2     1  UNL1       -0.0663
     25 C          62.3246   90.1757    9.9241 C.3     1  UNL1        0.1001
     26 N          62.9518   89.8878   11.2559 N.3     1  UNL1       -0.2928
     27 H          63.5237   89.0516   11.1375 H       1  UNL1        0.1236
     28 C          63.8216   90.9178   11.9136 C.3     1  UNL1        0.0849
     29 C          64.5073   91.9616   11.0827 C.3     1  UNL1        0.0604
     30 C          65.3771   92.9916   11.7404 C.3     1  UNL1        0.1363
     31 C          65.4317   93.3148   10.2765 C.3     1  UNL1        0.0402
     32 C          66.3468   94.4677   10.5652 C.3     1  UNL1        0.0072
     33 C          66.2922   94.1445   12.0290 C.3     1  UNL1        0.0402
     34 O          65.5612   92.9778   13.2289 O.3     1  UNL1       -0.4676
     35 C          64.8756   91.9340   14.0598 C.ar    1  UNL1        0.2216
     36 N          65.0597   91.9203   15.5485 N.ar    1  UNL1       -0.2107
     37 C          64.3741   90.8765   16.3794 C.ar    1  UNL1        0.0977
     38 C          63.5042   89.8465   15.7217 C.ar    1  UNL1       -0.0031
     39 C          63.3201   89.8603   14.2331 C.ar    1  UNL1       -0.0011
     40 C          64.0058   90.9041   13.4022 C.ar    1  UNL1        0.0449
     41 C          62.8185   88.8028   16.5526 C.3     1  UNL1        0.0279
     42 C          63.2986   87.3820   16.5180 C.3     1  UNL1        0.0041
     43 C          64.0324   87.6612   15.2399 C.3     1  UNL1        0.0003
     44 C          62.5647   87.1029   17.7961 C.3     1  UNL1        0.0003
     45 C          63.7786   85.9614   16.4833 C.3     1  UNL1        0.0003
@<TRIPOS>BOND
     1    10    11    1
     2    11     9    1
     3     9     5    1
     4     5     6    2
     5     5     7   am
     6     7     4    1
     7     4    12    1
     8    12    13    1
     9    13    14   ar
    10    14    15   ar
    11    15    16   ar
    12    16    17   ar
    13    17    19    1
    14    19    20   ar
    15    20    21   ar
    16    21    22    1
    17    21    23   ar
    18    23    24   ar
    19    17    18   ar
    20     4     1    1
    21     1     2    1
    22     1    25    1
    23    25    26    1
    24    28    26    1
    25    28    29    1
    26    29    30    1
    27    30    31    1
    28    31    32    1
    29    32    33    1
    30    30    34    1
    31    34    35    1
    32    35    36   ar
    33    36    37   ar
    34    37    38   ar
    35    38    41    1
    36    41    42    1
    37    42    43    1
    38    42    44    1
    39    42    45    1
    40    38    39   ar
    41    39    40   ar
    42    18    13   ar
    43    40    28    1
    44    24    19   ar
    45    33    30    1
    46    40    35   ar
    47     7     8    1
    48     2     3    1
    49    26    27    1
