@<TRIPOS>MOLECULE
*****
 22 24 0 0 0
SMALL
GASTEIGER

@<TRIPOS>ATOM
      1 C          60.8481   88.8091   11.4360 C.2     1  UNL1        0.2192
      2 O          59.5744   88.9489   12.2157 O.2     1  UNL1       -0.2844
      3 C          62.0485   89.6284   11.8072 C.ar    1  UNL1        0.1496
      4 N          62.7828   89.5747   13.1141 N.ar    1  UNL1       -0.2351
      5 C          63.9135   90.5584   13.0513 C.ar    1  UNL1        0.0882
      6 C          64.9707   90.9371   14.0457 C.ar    1  UNL1        0.0227
      7 C          65.9926   91.9774   13.6943 C.ar    1  UNL1        0.0382
      8 C          65.9572   92.6390   12.3485 C.ar    1  UNL1        0.1343
      9 O          66.9791   93.6793   11.9972 O.3     1  UNL1       -0.5055
     10 C          64.9000   92.2603   11.3542 C.ar    1  UNL1        0.0446
     11 C          63.8781   91.2200   11.7056 C.ar    1  UNL1        0.0516
     12 S          62.7255   90.6452   10.9367 S.2     1  UNL1       -0.0633
     13 H          67.6396   93.9159   12.6183 H       1  UNL1        0.2922
     14 C          61.1415   84.9727    6.8320 C.3     1  UNL1        0.0342
     15 C          61.0681   85.9318    7.9830 C.ar    1  UNL1        0.0118
     16 C          62.2664   86.1439    8.8601 C.ar    1  UNL1       -0.0012
     17 C          62.1930   87.1029   10.0111 C.ar    1  UNL1        0.0031
     18 C          60.9215   87.8500   10.2850 C.ar    1  UNL1        0.0440
     19 C          59.7232   87.6380    9.4079 C.ar    1  UNL1        0.0395
     20 C          59.7966   86.6789    8.2569 C.ar    1  UNL1        0.1297
     21 O          58.5984   86.4669    7.3798 O.3     1  UNL1       -0.5058
     22 H          57.8041   86.9336    7.5509 H       1  UNL1        0.2922
@<TRIPOS>BOND
     1    14    15    1
     2    15    16   ar
     3    16    17   ar
     4    17    18   ar
     5    18     1    1
     6     1     2    2
     7     1     3    1
     8     3     4   ar
     9     4     5   ar
    10     5     6   ar
    11     6     7   ar
    12     7     8   ar
    13     8     9    1
    14     8    10   ar
    15    10    11   ar
    16    11    12   ar
    17    18    19   ar
    18    19    20   ar
    19    20    21    1
    20    20    15   ar
    21    12     3   ar
    22    11     5   ar
    23     9    13    1
    24    21    22    1
@<TRIPOS>MOLECULE
*****
 22 24 0 0 0
SMALL
GASTEIGER

@<TRIPOS>ATOM
      1 C          63.8513   90.3468   15.6766 C.2     1  UNL1        0.2192
      2 O          63.3623   91.1800   16.8241 O.2     1  UNL1       -0.2844
      3 C          64.4194   91.0098   14.4569 C.ar    1  UNL1        0.1496
      4 N          63.7090   91.2115   13.1513 N.ar    1  UNL1       -0.2351
      5 C          64.6482   91.9139   12.2162 C.ar    1  UNL1        0.0882
      6 C          64.4948   92.3718   10.7961 C.ar    1  UNL1        0.0227
      7 C          65.6323   93.0622   10.1036 C.ar    1  UNL1        0.0382
      8 C          66.9232   93.2946   10.8313 C.ar    1  UNL1        0.1343
      9 O          68.0607   93.9849   10.1388 O.3     1  UNL1       -0.5055
     10 C          67.0767   92.8366   12.2514 C.ar    1  UNL1        0.0446
     11 C          65.9392   92.1463   12.9438 C.ar    1  UNL1        0.0516
     12 S          65.7977   91.5875   14.3287 S.2     1  UNL1       -0.0633
     13 H          67.9649   94.2710    9.2517 H       1  UNL1        0.2922
     14 C          63.5346   84.3621   15.9655 C.3     1  UNL1        0.0342
     15 C          63.6137   85.8584   15.8933 C.ar    1  UNL1        0.0118
     16 C          64.3529   86.5168   14.7662 C.ar    1  UNL1       -0.0012
     17 C          64.4320   88.0129   14.6940 C.ar    1  UNL1        0.0031
     18 C          63.7721   88.8507   15.7489 C.ar    1  UNL1        0.0440
     19 C          63.0330   88.1923   16.8759 C.ar    1  UNL1        0.0395
     20 C          62.9538   86.6961   16.9481 C.ar    1  UNL1        0.1297
     21 O          62.2147   86.0377   18.0751 O.3     1  UNL1       -0.5058
     22 H          61.8024   86.5610   18.7340 H       1  UNL1        0.2922
@<TRIPOS>BOND
     1    14    15    1
     2    15    16   ar
     3    16    17   ar
     4    17    18   ar
     5    18     1    1
     6     1     2    2
     7     1     3    1
     8     3     4   ar
     9     4     5   ar
    10     5     6   ar
    11     6     7   ar
    12     7     8   ar
    13     8     9    1
    14     8    10   ar
    15    10    11   ar
    16    11    12   ar
    17    18    19   ar
    18    19    20   ar
    19    20    21    1
    20    20    15   ar
    21    12     3   ar
    22    11     5   ar
    23     9    13    1
    24    21    22    1
@<TRIPOS>MOLECULE
*****
 22 24 0 0 0
SMALL
GASTEIGER

@<TRIPOS>ATOM
      1 C          60.8405   88.6699   11.2363 C.2     1  UNL1        0.2192
      2 O          59.5552   88.7589   12.0044 O.2     1  UNL1       -0.2844
      3 C          62.0013   89.5420   11.6130 C.ar    1  UNL1        0.1496
      4 N          62.6629   89.5968   12.9581 N.ar    1  UNL1       -0.2351
      5 C          63.7748   90.6011   12.8872 C.ar    1  UNL1        0.0882
      6 C          64.7673   91.0734   13.9080 C.ar    1  UNL1        0.0227
      7 C          65.7854   92.1116   13.5397 C.ar    1  UNL1        0.0382
      8 C          65.8110   92.6774   12.1508 C.ar    1  UNL1        0.1343
      9 O          66.8292   93.7157   11.7826 O.3     1  UNL1       -0.5055
     10 C          64.8186   92.2051   11.1301 C.ar    1  UNL1        0.0446
     11 C          63.8005   91.1669   11.4983 C.ar    1  UNL1        0.0516
     12 S          62.7044   90.5124   10.7108 S.2     1  UNL1       -0.0633
     13 H          67.4492   94.0107   12.4203 H       1  UNL1        0.2922
     14 C          61.3384   84.8252    6.6569 C.3     1  UNL1        0.0342
     15 C          61.2139   85.7864    7.8018 C.ar    1  UNL1        0.0118
     16 C          60.0640   86.7482    7.8519 C.ar    1  UNL1       -0.0012
     17 C          59.9395   87.7094    8.9967 C.ar    1  UNL1        0.0031
     18 C          60.9650   87.7087   10.0915 C.ar    1  UNL1        0.0440
     19 C          62.1149   86.7469   10.0414 C.ar    1  UNL1        0.0395
     20 C          62.2394   85.7857    8.8965 C.ar    1  UNL1        0.1297
     21 O          63.3893   84.8239    8.8464 O.3     1  UNL1       -0.5058
     22 H          64.0299   84.8234    9.5302 H       1  UNL1        0.2922
@<TRIPOS>BOND
     1    14    15    1
     2    15    16   ar
     3    16    17   ar
     4    17    18   ar
     5    18     1    1
     6     1     2    2
     7     1     3    1
     8     3     4   ar
     9     4     5   ar
    10     5     6   ar
    11     6     7   ar
    12     7     8   ar
    13     8     9    1
    14     8    10   ar
    15    10    11   ar
    16    11    12   ar
    17    18    19   ar
    18    19    20   ar
    19    20    21    1
    20    20    15   ar
    21    12     3   ar
    22    11     5   ar
    23     9    13    1
    24    21    22    1
@<TRIPOS>MOLECULE
*****
 22 24 0 0 0
SMALL
GASTEIGER

@<TRIPOS>ATOM
      1 C          62.9498   89.9826   12.4753 C.2     1  UNL1        0.2192
      2 O          62.7421   89.5420   13.8940 O.2     1  UNL1       -0.2844
      3 C          62.2042   89.3064   11.3632 C.ar    1  UNL1        0.1496
      4 N          61.2399   89.9637   10.4208 N.ar    1  UNL1       -0.2351
      5 C          60.7316   88.9177    9.4734 C.ar    1  UNL1        0.0882
      6 C          59.7608   88.9841    8.3319 C.ar    1  UNL1        0.0227
      7 C          59.4402   87.7466    7.5472 C.ar    1  UNL1        0.0382
      8 C          60.0903   86.4428    7.9040 C.ar    1  UNL1        0.1343
      9 O          59.7697   85.2052    7.1193 O.3     1  UNL1       -0.5055
     10 C          61.0612   86.3764    9.0455 C.ar    1  UNL1        0.0446
     11 C          61.3818   87.6139    9.8302 C.ar    1  UNL1        0.0516
     12 S          62.2919   87.8541   10.9982 S.2     1  UNL1       -0.0633
     13 H          59.1632   85.2467    6.4062 H       1  UNL1        0.2922
     14 C          66.7632   94.4496   11.2488 C.3     1  UNL1        0.0342
     15 C          65.8098   93.3328   11.5555 C.ar    1  UNL1        0.0118
     16 C          64.9551   92.7560   10.4661 C.ar    1  UNL1       -0.0012
     17 C          64.0018   91.6393   10.7727 C.ar    1  UNL1        0.0031
     18 C          63.9031   91.0993   12.1687 C.ar    1  UNL1        0.0440
     19 C          64.7578   91.6761   13.2581 C.ar    1  UNL1        0.0395
     20 C          65.7112   92.7929   12.9514 C.ar    1  UNL1        0.1297
     21 O          66.5659   93.3697   14.0408 O.3     1  UNL1       -0.5058
     22 H          66.5043   93.0325   14.9128 H       1  UNL1        0.2922
@<TRIPOS>BOND
     1    14    15    1
     2    15    16   ar
     3    16    17   ar
     4    17    18   ar
     5    18     1    1
     6     1     2    2
     7     1     3    1
     8     3     4   ar
     9     4     5   ar
    10     5     6   ar
    11     6     7   ar
    12     7     8   ar
    13     8     9    1
    14     8    10   ar
    15    10    11   ar
    16    11    12   ar
    17    18    19   ar
    18    19    20   ar
    19    20    21    1
    20    20    15   ar
    21    12     3   ar
    22    11     5   ar
    23     9    13    1
    24    21    22    1
@<TRIPOS>MOLECULE
*****
 22 24 0 0 0
SMALL
GASTEIGER

@<TRIPOS>ATOM
      1 C          62.7768   86.2733   12.1059 C.2     1  UNL1        0.2192
      2 O          63.5533   87.2269   12.9649 O.2     1  UNL1       -0.2844
      3 C          61.9459   86.7930   10.9703 C.ar    1  UNL1        0.1496
      4 N          61.0340   85.9794   10.1006 N.ar    1  UNL1       -0.2351
      5 C          60.4056   86.9010    9.0978 C.ar    1  UNL1        0.0882
      6 C          59.4243   86.6594    7.9893 C.ar    1  UNL1        0.0227
      7 C          58.9666   87.8011    7.1309 C.ar    1  UNL1        0.0382
      8 C          59.4901   89.1844    7.3808 C.ar    1  UNL1        0.1343
      9 O          59.0323   90.3261    6.5223 O.3     1  UNL1       -0.5055
     10 C          60.4714   89.4260    8.4893 C.ar    1  UNL1        0.0446
     11 C          60.9291   88.2843    9.3477 C.ar    1  UNL1        0.0516
     12 S          61.8811   88.2175   10.5050 S.2     1  UNL1       -0.0633
     13 H          58.4193   90.1751    5.8299 H       1  UNL1        0.2922
     14 C          62.9943   80.3803   13.2128 C.3     1  UNL1        0.0342
     15 C          62.9399   81.8536   12.9361 C.ar    1  UNL1        0.0118
     16 C          63.0962   82.3594   11.5326 C.ar    1  UNL1       -0.0012
     17 C          63.0418   83.8326   11.2559 C.ar    1  UNL1        0.0031
     18 C          62.8312   84.8001   12.3827 C.ar    1  UNL1        0.0440
     19 C          62.6749   84.2943   13.7862 C.ar    1  UNL1        0.0395
     20 C          62.7293   82.8210   14.0628 C.ar    1  UNL1        0.1297
     21 O          62.5730   82.3153   15.4663 O.3     1  UNL1       -0.5058
     22 H          62.4414   82.9196   16.1702 H       1  UNL1        0.2922
@<TRIPOS>BOND
     1    14    15    1
     2    15    16   ar
     3    16    17   ar
     4    17    18   ar
     5    18     1    1
     6     1     2    2
     7     1     3    1
     8     3     4   ar
     9     4     5   ar
    10     5     6   ar
    11     6     7   ar
    12     7     8   ar
    13     8     9    1
    14     8    10   ar
    15    10    11   ar
    16    11    12   ar
    17    18    19   ar
    18    19    20   ar
    19    20    21    1
    20    20    15   ar
    21    12     3   ar
    22    11     5   ar
    23     9    13    1
    24    21    22    1
@<TRIPOS>MOLECULE
*****
 22 24 0 0 0
SMALL
GASTEIGER

@<TRIPOS>ATOM
      1 C          61.6406   87.8963   10.7859 C.2     1  UNL1        0.2192
      2 O          60.1757   88.1123   10.5465 O.2     1  UNL1       -0.2844
      3 C          62.5182   89.0540   11.1594 C.ar    1  UNL1        0.1496
      4 N          62.9901   90.1369   10.2349 N.ar    1  UNL1       -0.2351
      5 C          63.8416   91.0842   11.0271 C.ar    1  UNL1        0.0882
      6 C          64.5745   92.3355   10.6435 C.ar    1  UNL1        0.0227
      7 C          65.3618   93.0893   11.6739 C.ar    1  UNL1        0.0382
      8 C          65.4162   92.5919   13.0880 C.ar    1  UNL1        0.1343
      9 O          66.2035   93.3458   14.1185 O.3     1  UNL1       -0.5055
     10 C          64.6833   91.3407   13.4716 C.ar    1  UNL1        0.0446
     11 C          63.8960   90.5868   12.4412 C.ar    1  UNL1        0.0516
     12 S          63.0781   89.3321   12.5229 S.2     1  UNL1       -0.0633
     13 H          66.6613   94.1275   13.8788 H       1  UNL1        0.2922
     14 C          63.9896   82.4013   10.2497 C.3     1  UNL1        0.0342
     15 C          63.4023   83.7751   10.3838 C.ar    1  UNL1        0.0118
     16 C          63.1810   84.6185    9.1633 C.ar    1  UNL1       -0.0012
     17 C          62.5938   85.9922    9.2973 C.ar    1  UNL1        0.0031
     18 C          62.2278   86.5226   10.6519 C.ar    1  UNL1        0.0440
     19 C          62.4491   85.6792   11.8724 C.ar    1  UNL1        0.0395
     20 C          63.0364   84.3054   11.7383 C.ar    1  UNL1        0.1297
     21 O          63.2577   83.4619   12.9588 O.3     1  UNL1       -0.5058
     22 H          63.0291   83.7932   13.8050 H       1  UNL1        0.2922
@<TRIPOS>BOND
     1    14    15    1
     2    15    16   ar
     3    16    17   ar
     4    17    18   ar
     5    18     1    1
     6     1     2    2
     7     1     3    1
     8     3     4   ar
     9     4     5   ar
    10     5     6   ar
    11     6     7   ar
    12     7     8   ar
    13     8     9    1
    14     8    10   ar
    15    10    11   ar
    16    11    12   ar
    17    18    19   ar
    18    19    20   ar
    19    20    21    1
    20    20    15   ar
    21    12     3   ar
    22    11     5   ar
    23     9    13    1
    24    21    22    1
@<TRIPOS>MOLECULE
*****
 22 24 0 0 0
SMALL
GASTEIGER

@<TRIPOS>ATOM
      1 C          62.4822   87.0682   11.5088 C.2     1  UNL1        0.2192
      2 O          63.2042   88.0875   12.3392 O.2     1  UNL1       -0.2844
      3 C          62.6409   85.6072   11.8092 C.ar    1  UNL1        0.1496
      4 N          62.7984   84.5111   10.7975 N.ar    1  UNL1       -0.2351
      5 C          62.9249   83.2122   11.5372 C.ar    1  UNL1        0.0882
      6 C          63.1020   81.8003   11.0630 C.ar    1  UNL1        0.0227
      7 C          63.1999   80.6818   12.0576 C.ar    1  UNL1        0.0382
      8 C          63.1206   80.9753   13.5265 C.ar    1  UNL1        0.1343
      9 O          63.2185   79.8567   14.5211 O.3     1  UNL1       -0.5055
     10 C          62.9435   82.3872   14.0007 C.ar    1  UNL1        0.0446
     11 C          62.8456   83.5057   13.0061 C.ar    1  UNL1        0.0516
     12 S          62.6701   84.9859   13.1742 S.2     1  UNL1       -0.0633
     13 H          63.3292   78.9747   14.2249 H       1  UNL1        0.2922
     14 C          58.9588   88.8352    6.9851 C.3     1  UNL1        0.0342
     15 C          59.8396   88.3935    8.1160 C.ar    1  UNL1        0.0118
     16 C          60.5334   89.4138    8.9690 C.ar    1  UNL1       -0.0012
     17 C          61.4142   88.9721   10.0999 C.ar    1  UNL1        0.0031
     18 C          61.6013   87.5100   10.3779 C.ar    1  UNL1        0.0440
     19 C          60.9076   86.4896    9.5249 C.ar    1  UNL1        0.0395
     20 C          60.0267   86.9314    8.3939 C.ar    1  UNL1        0.1297
     21 O          59.3330   85.9110    7.5409 O.3     1  UNL1       -0.5058
     22 H          59.4499   84.9977    7.7145 H       1  UNL1        0.2922
@<TRIPOS>BOND
     1    14    15    1
     2    15    16   ar
     3    16    17   ar
     4    17    18   ar
     5    18     1    1
     6     1     2    2
     7     1     3    1
     8     3     4   ar
     9     4     5   ar
    10     5     6   ar
    11     6     7   ar
    12     7     8   ar
    13     8     9    1
    14     8    10   ar
    15    10    11   ar
    16    11    12   ar
    17    18    19   ar
    18    19    20   ar
    19    20    21    1
    20    20    15   ar
    21    12     3   ar
    22    11     5   ar
    23     9    13    1
    24    21    22    1
@<TRIPOS>MOLECULE
*****
 22 24 0 0 0
SMALL
GASTEIGER

@<TRIPOS>ATOM
      1 C          63.7953   85.6814   15.1290 C.2     1  UNL1        0.2192
      2 O          63.9878   85.6413   16.6160 O.2     1  UNL1       -0.2844
      3 C          63.8441   86.9923   14.4015 C.ar    1  UNL1        0.1496
      4 N          63.2220   87.2844   13.0682 N.ar    1  UNL1       -0.2351
      5 C          63.5169   88.7139   12.7222 C.ar    1  UNL1        0.0882
      6 C          63.1570   89.5534   11.5325 C.ar    1  UNL1        0.0227
      7 C          63.6014   90.9843   11.4623 C.ar    1  UNL1        0.0382
      8 C          64.4058   91.5757   12.5818 C.ar    1  UNL1        0.1343
      9 O          64.8502   93.0066   12.5115 O.3     1  UNL1       -0.5055
     10 C          64.7657   90.7361   13.7715 C.ar    1  UNL1        0.0446
     11 C          64.3213   89.3052   13.8418 C.ar    1  UNL1        0.0516
     12 S          64.5235   88.2412   14.8796 S.2     1  UNL1       -0.0633
     13 H          64.6254   93.5311   11.7683 H       1  UNL1        0.2922
     14 C          62.8302   80.5983   12.0907 C.3     1  UNL1        0.0342
     15 C          63.0715   81.8691   12.8503 C.ar    1  UNL1        0.0118
     16 C          62.2255   82.2018   14.0435 C.ar    1  UNL1       -0.0012
     17 C          62.4668   83.4726   14.8030 C.ar    1  UNL1        0.0031
     18 C          63.5540   84.4107   14.3694 C.ar    1  UNL1        0.0440
     19 C          64.4000   84.0779   13.1762 C.ar    1  UNL1        0.0395
     20 C          64.1587   82.8071   12.4167 C.ar    1  UNL1        0.1297
     21 O          65.0046   82.4744   11.2235 O.3     1  UNL1       -0.5058
     22 H          65.6838   83.0603   10.9526 H       1  UNL1        0.2922
@<TRIPOS>BOND
     1    14    15    1
     2    15    16   ar
     3    16    17   ar
     4    17    18   ar
     5    18     1    1
     6     1     2    2
     7     1     3    1
     8     3     4   ar
     9     4     5   ar
    10     5     6   ar
    11     6     7   ar
    12     7     8   ar
    13     8     9    1
    14     8    10   ar
    15    10    11   ar
    16    11    12   ar
    17    18    19   ar
    18    19    20   ar
    19    20    21    1
    20    20    15   ar
    21    12     3   ar
    22    11     5   ar
    23     9    13    1
    24    21    22    1
@<TRIPOS>MOLECULE
*****
 22 24 0 0 0
SMALL
GASTEIGER

@<TRIPOS>ATOM
      1 C          61.8761   88.3414   11.1613 C.2     1  UNL1        0.2192
      2 O          60.5540   88.5289   10.4780 O.2     1  UNL1       -0.2844
      3 C          62.2960   86.9767   11.6209 C.ar    1  UNL1        0.1496
      4 N          63.1892   86.6754   12.7876 N.ar    1  UNL1       -0.2351
      5 C          63.3416   85.1861   12.8823 C.ar    1  UNL1        0.0882
      6 C          64.1048   84.3139   13.8345 C.ar    1  UNL1        0.0227
      7 C          64.0689   82.8225   13.6784 C.ar    1  UNL1        0.0382
      8 C          63.2698   82.2034   12.5701 C.ar    1  UNL1        0.1343
      9 O          63.2339   80.7119   12.4141 O.3     1  UNL1       -0.5055
     10 C          62.5067   83.0757   11.6180 C.ar    1  UNL1        0.0446
     11 C          62.5426   84.5670   11.7741 C.ar    1  UNL1        0.0516
     12 S          61.8963   85.6737   10.9945 S.2     1  UNL1       -0.0633
     13 H          63.7107   80.1670   13.0089 H       1  UNL1        0.2922
     14 C          65.4849   93.0506   12.0558 C.3     1  UNL1        0.0342
     15 C          64.5827   91.8733   11.8322 C.ar    1  UNL1        0.0118
     16 C          63.9384   91.6657   10.4936 C.ar    1  UNL1       -0.0012
     17 C          63.0362   90.4885   10.2700 C.ar    1  UNL1        0.0031
     18 C          62.7783   89.5187   11.3849 C.ar    1  UNL1        0.0440
     19 C          63.4226   89.7262   12.7235 C.ar    1  UNL1        0.0395
     20 C          64.3248   90.9036   12.9471 C.ar    1  UNL1        0.1297
     21 O          64.9691   91.1111   14.2857 O.3     1  UNL1       -0.5058
     22 H          64.8080   90.5054   14.9822 H       1  UNL1        0.2922
@<TRIPOS>BOND
     1    14    15    1
     2    15    16   ar
     3    16    17   ar
     4    17    18   ar
     5    18     1    1
     6     1     2    2
     7     1     3    1
     8     3     4   ar
     9     4     5   ar
    10     5     6   ar
    11     6     7   ar
    12     7     8   ar
    13     8     9    1
    14     8    10   ar
    15    10    11   ar
    16    11    12   ar
    17    18    19   ar
    18    19    20   ar
    19    20    21    1
    20    20    15   ar
    21    12     3   ar
    22    11     5   ar
    23     9    13    1
    24    21    22    1
