@<TRIPOS>MOLECULE
*****
 24 26 0 0 0
SMALL
GASTEIGER

@<TRIPOS>ATOM
      1 O          63.2245   91.0297   16.8261 O.2     1  UNL1       -0.2684
      2 C          63.7718   90.2167   15.6906 C.2     1  UNL1        0.2652
      3 N          63.6033   88.7262   15.6857 N.am    1  UNL1       -0.2992
      4 H          63.9625   88.1927   14.9404 H       1  UNL1        0.1498
      5 C          64.4877   90.8943   14.5598 C.ar    1  UNL1        0.1535
      6 C          65.9374   91.2537   14.6980 C.ar    1  UNL1        0.1225
      7 N          66.6531   91.9312   13.5672 N.ar    1  UNL1       -0.2405
      8 C          65.9192   92.2493   12.2983 C.ar    1  UNL1        0.1004
      9 C          64.4695   91.8899   12.1601 C.ar    1  UNL1        0.1181
     10 N          63.7537   91.2123   13.2909 N.ar    1  UNL1       -0.2361
     11 C          66.6350   92.9269   11.1675 C.ar    1  UNL1        0.0192
     12 C          67.6247   92.1612   10.3404 C.ar    1  UNL1        0.0015
     13 C          68.3405   92.8388    9.2096 C.ar    1  UNL1        0.0000
     14 C          68.0666   94.2820    8.9061 C.ar    1  UNL1        0.0000
     15 C          67.0769   95.0477    9.7333 C.ar    1  UNL1        0.0000
     16 C          66.3611   94.3701   10.8640 C.ar    1  UNL1        0.0015
     17 C          62.8875   88.0487   16.8165 C.3     1  UNL1        0.0960
     18 C          63.2211   86.6303   17.1727 C.3     1  UNL1        0.0664
     19 C          63.5540   85.6442   16.0925 C.ar    1  UNL1        0.0558
     20 C          62.6479   84.5687   15.5707 C.ar    1  UNL1        0.1131
     21 N          63.3853   83.8203   14.5002 N.ar    1  UNL1       -0.2229
     22 C          64.7472   84.4334   14.3604 C.ar    1  UNL1        0.1748
     23 N          64.8514   85.5606   15.3445 N.ar    1  UNL1       -0.3381
     24 H          65.6340   86.1432   15.4763 H       1  UNL1        0.1672
@<TRIPOS>BOND
     1     1     2    2
     2     2     3   am
     3     3    17    1
     4    17    18    1
     5    18    19    1
     6    19    20   ar
     7    20    21   ar
     8    21    22   ar
     9    22    23   ar
    10     2     5    1
    11     5     6   ar
    12     6     7   ar
    13     7     8   ar
    14     8    11    1
    15    11    12   ar
    16    12    13   ar
    17    13    14   ar
    18    14    15   ar
    19    15    16   ar
    20     8     9   ar
    21     9    10   ar
    22    23    19   ar
    23    10     5   ar
    24    16    11   ar
    25     3     4    1
    26    23    24    1
@<TRIPOS>MOLECULE
*****
 24 26 0 0 0
SMALL
GASTEIGER

@<TRIPOS>ATOM
      1 O          63.1408   90.8946   16.8216 O.2     1  UNL1       -0.2684
      2 C          63.7157   90.0912   15.6928 C.2     1  UNL1        0.2652
      3 N          63.5987   88.5959   15.7009 N.am    1  UNL1       -0.2992
      4 H          63.9760   88.0686   14.9601 H       1  UNL1        0.1498
      5 C          64.4076   90.7833   14.5560 C.ar    1  UNL1        0.1535
      6 C          63.7138   90.9318   13.2345 C.ar    1  UNL1        0.1225
      7 N          64.4057   91.6239   12.0977 N.ar    1  UNL1       -0.2405
      8 C          65.7915   92.1673   12.2825 C.ar    1  UNL1        0.1004
      9 C          66.4854   92.0188   13.6040 C.ar    1  UNL1        0.1181
     10 N          65.7935   91.3268   14.7407 N.ar    1  UNL1       -0.2361
     11 C          66.4835   92.8594   11.1456 C.ar    1  UNL1        0.0192
     12 C          66.0757   94.2486   10.7535 C.ar    1  UNL1        0.0015
     13 C          66.7677   94.9407    9.6167 C.ar    1  UNL1        0.0000
     14 C          67.8673   94.2434    8.8720 C.ar    1  UNL1        0.0000
     15 C          68.2751   92.8541    9.2641 C.ar    1  UNL1        0.0000
     16 C          67.5831   92.1621   10.4009 C.ar    1  UNL1        0.0015
     17 C          62.9067   87.9038   16.8378 C.3     1  UNL1        0.0960
     18 C          63.1807   86.4548   17.1120 C.3     1  UNL1        0.0664
     19 C          63.5883   85.5436   15.9924 C.ar    1  UNL1        0.0558
     20 C          62.7372   84.4773   15.3691 C.ar    1  UNL1        0.1131
     21 N          63.5415   83.8134   14.2910 N.ar    1  UNL1       -0.2229
     22 C          64.8898   84.4695   14.2480 C.ar    1  UNL1        0.1748
     23 N          64.9187   85.5388   15.2996 N.ar    1  UNL1       -0.3381
     24 H          65.6776   86.1331   15.4998 H       1  UNL1        0.1672
@<TRIPOS>BOND
     1     1     2    2
     2     2     3   am
     3     3    17    1
     4    17    18    1
     5    18    19    1
     6    19    20   ar
     7    20    21   ar
     8    21    22   ar
     9    22    23   ar
    10     2     5    1
    11     5     6   ar
    12     6     7   ar
    13     7     8   ar
    14     8    11    1
    15    11    12   ar
    16    12    13   ar
    17    13    14   ar
    18    14    15   ar
    19    15    16   ar
    20     8     9   ar
    21     9    10   ar
    22    23    19   ar
    23    10     5   ar
    24    16    11   ar
    25     3     4    1
    26    23    24    1
@<TRIPOS>MOLECULE
*****
 24 26 0 0 0
SMALL
GASTEIGER

@<TRIPOS>ATOM
      1 O          60.1632   89.1171   12.0080 O.2     1  UNL1       -0.2684
      2 C          61.3291   89.6844   11.2538 C.2     1  UNL1        0.2652
      3 N          61.3074   89.7186    9.7543 N.am    1  UNL1       -0.2992
      4 H          62.0726   90.0910    9.2593 H       1  UNL1        0.1498
      5 C          62.5168   90.2175   11.9990 C.ar    1  UNL1        0.1535
      6 C          63.4717   91.1526   11.3181 C.ar    1  UNL1        0.1225
      7 N          64.6592   91.6856   12.0633 N.ar    1  UNL1       -0.2405
      8 C          64.8919   91.2835   13.4896 C.ar    1  UNL1        0.1004
      9 C          63.9371   90.3484   14.1706 C.ar    1  UNL1        0.1181
     10 N          62.7495   89.8154   13.4253 N.ar    1  UNL1       -0.2361
     11 C          66.0796   91.8166   14.2349 C.ar    1  UNL1        0.0192
     12 C          67.4304   91.8292   13.5828 C.ar    1  UNL1        0.0015
     13 C          68.6180   92.3623   14.3281 C.ar    1  UNL1        0.0000
     14 C          68.4548   92.8827   15.7254 C.ar    1  UNL1        0.0000
     15 C          67.1040   92.8701   16.3775 C.ar    1  UNL1        0.0000
     16 C          65.9164   92.3370   15.6322 C.ar    1  UNL1        0.0015
     17 C          60.1197   89.1856    9.0091 C.3     1  UNL1        0.0960
     18 C          60.0005   87.7144    8.7417 C.3     1  UNL1        0.0664
     19 C          60.9358   86.7522    9.4120 C.ar    1  UNL1        0.0558
     20 C          62.0842   86.0403    8.7606 C.ar    1  UNL1        0.1131
     21 N          62.7451   85.1810    9.7973 N.ar    1  UNL1       -0.2229
     22 C          62.0051   85.3619   11.0895 C.ar    1  UNL1        0.1748
     23 N          60.8869   86.3329   10.8514 N.ar    1  UNL1       -0.3381
     24 H          60.2353   86.6410   11.5220 H       1  UNL1        0.1672
@<TRIPOS>BOND
     1     1     2    2
     2     2     3   am
     3     3    17    1
     4    17    18    1
     5    18    19    1
     6    19    20   ar
     7    20    21   ar
     8    21    22   ar
     9    22    23   ar
    10     2     5    1
    11     5     6   ar
    12     6     7   ar
    13     7     8   ar
    14     8    11    1
    15    11    12   ar
    16    12    13   ar
    17    13    14   ar
    18    14    15   ar
    19    15    16   ar
    20     8     9   ar
    21     9    10   ar
    22    23    19   ar
    23    10     5   ar
    24    16    11   ar
    25     3     4    1
    26    23    24    1
@<TRIPOS>MOLECULE
*****
 24 26 0 0 0
SMALL
GASTEIGER

@<TRIPOS>ATOM
      1 O          64.5689   89.7232   15.0255 O.2     1  UNL1       -0.2684
      2 C          64.0450   89.1929   13.7239 C.2     1  UNL1        0.2652
      3 N          63.7889   90.1299   12.5809 N.am    1  UNL1       -0.2992
      4 H          63.4451   89.7818   11.7266 H       1  UNL1        0.1498
      5 C          63.7771   87.7255   13.5653 C.ar    1  UNL1        0.1535
      6 C          64.2999   86.7536   14.5811 C.ar    1  UNL1        0.1225
      7 N          64.0320   85.2863   14.4225 N.ar    1  UNL1       -0.2405
      8 C          63.2414   84.7909   13.2479 C.ar    1  UNL1        0.1004
      9 C          62.7187   85.7629   12.2320 C.ar    1  UNL1        0.1181
     10 N          62.9866   87.2302   12.3907 N.ar    1  UNL1       -0.2361
     11 C          62.9736   83.3235   13.0893 C.ar    1  UNL1        0.0192
     12 C          62.4164   82.5345   14.2369 C.ar    1  UNL1        0.0015
     13 C          62.1485   81.0671   14.0782 C.ar    1  UNL1        0.0000
     14 C          62.4379   80.3888   12.7720 C.ar    1  UNL1        0.0000
     15 C          62.9951   81.1780   11.6244 C.ar    1  UNL1        0.0000
     16 C          63.2629   82.6453   11.7831 C.ar    1  UNL1        0.0015
     17 C          64.0568   91.5973   12.7395 C.3     1  UNL1        0.0960
     18 C          65.4403   92.1349   12.5230 C.3     1  UNL1        0.0664
     19 C          66.3288   92.4144   13.6987 C.ar    1  UNL1        0.0558
     20 C          66.6907   93.7706   14.2276 C.ar    1  UNL1        0.1131
     21 N          67.5970   93.5813   15.4078 N.ar    1  UNL1       -0.2229
     22 C          67.7952   92.1079   15.6082 C.ar    1  UNL1        0.1748
     23 N          67.0114   91.3868   14.5520 N.ar    1  UNL1       -0.3381
     24 H          66.9549   90.4105   14.4387 H       1  UNL1        0.1672
@<TRIPOS>BOND
     1     1     2    2
     2     2     3   am
     3     3    17    1
     4    17    18    1
     5    18    19    1
     6    19    20   ar
     7    20    21   ar
     8    21    22   ar
     9    22    23   ar
    10     2     5    1
    11     5     6   ar
    12     6     7   ar
    13     7     8   ar
    14     8    11    1
    15    11    12   ar
    16    12    13   ar
    17    13    14   ar
    18    14    15   ar
    19    15    16   ar
    20     8     9   ar
    21     9    10   ar
    22    23    19   ar
    23    10     5   ar
    24    16    11   ar
    25     3     4    1
    26    23    24    1
@<TRIPOS>MOLECULE
*****
 24 26 0 0 0
SMALL
GASTEIGER

@<TRIPOS>ATOM
      1 O          62.2271   90.0877   11.2092 O.2     1  UNL1       -0.2684
      2 C          63.1146   89.3552   12.1714 C.2     1  UNL1        0.2652
      3 N          64.1009   90.1143   13.0087 N.am    1  UNL1       -0.2992
      4 H          64.6834   89.6335   13.6402 H       1  UNL1        0.1498
      5 C          63.0158   87.8637   12.2963 C.ar    1  UNL1        0.1535
      6 C          62.2274   87.0775   11.2912 C.ar    1  UNL1        0.1225
      7 N          62.1286   85.5860   11.4162 N.ar    1  UNL1       -0.2405
      8 C          62.8182   84.8807   12.5462 C.ar    1  UNL1        0.1004
      9 C          63.6066   85.6669   13.5513 C.ar    1  UNL1        0.1181
     10 N          63.7054   87.1584   13.4264 N.ar    1  UNL1       -0.2361
     11 C          62.7194   83.3891   12.6712 C.ar    1  UNL1        0.0192
     12 C          62.2593   82.7732   13.9592 C.ar    1  UNL1        0.0015
     13 C          62.1605   81.2816   14.0841 C.ar    1  UNL1        0.0000
     14 C          62.5217   80.4061   12.9210 C.ar    1  UNL1        0.0000
     15 C          62.9817   81.0220   11.6329 C.ar    1  UNL1        0.0000
     16 C          63.0806   82.5135   11.5080 C.ar    1  UNL1        0.0015
     17 C          64.1998   91.6058   12.8838 C.3     1  UNL1        0.0960
     18 C          65.4900   92.2386   12.4538 C.3     1  UNL1        0.0664
     19 C          66.5428   92.5618   13.4721 C.ar    1  UNL1        0.0558
     20 C          67.9288   91.9902   13.5193 C.ar    1  UNL1        0.1131
     21 N          68.6371   92.5885   14.6985 N.ar    1  UNL1       -0.2229
     22 C          67.6887   93.5297   15.3801 C.ar    1  UNL1        0.1748
     23 N          66.3943   93.5132   14.6222 N.ar    1  UNL1       -0.3381
     24 H          65.5888   94.0352   14.8411 H       1  UNL1        0.1672
@<TRIPOS>BOND
     1     1     2    2
     2     2     3   am
     3     3    17    1
     4    17    18    1
     5    18    19    1
     6    19    20   ar
     7    20    21   ar
     8    21    22   ar
     9    22    23   ar
    10     2     5    1
    11     5     6   ar
    12     6     7   ar
    13     7     8   ar
    14     8    11    1
    15    11    12   ar
    16    12    13   ar
    17    13    14   ar
    18    14    15   ar
    19    15    16   ar
    20     8     9   ar
    21     9    10   ar
    22    23    19   ar
    23    10     5   ar
    24    16    11   ar
    25     3     4    1
    26    23    24    1
@<TRIPOS>MOLECULE
*****
 24 26 0 0 0
SMALL
GASTEIGER

@<TRIPOS>ATOM
      1 O          63.3442   90.6687   12.6980 O.2     1  UNL1       -0.2684
      2 C          64.1000   89.6937   13.5514 C.2     1  UNL1        0.2652
      3 N          65.1444   90.1871   14.5083 N.am    1  UNL1       -0.2992
      4 H          65.6405   89.5472   15.0685 H       1  UNL1        0.1498
      5 C          63.8113   88.2254   13.4479 C.ar    1  UNL1        0.1535
      6 C          64.2661   87.2934   14.5316 C.ar    1  UNL1        0.1225
      7 N          63.9774   85.8251   14.4280 N.ar    1  UNL1       -0.2405
      8 C          63.2340   85.2888   13.2406 C.ar    1  UNL1        0.1004
      9 C          62.7792   86.2208   12.1569 C.ar    1  UNL1        0.1181
     10 N          63.0679   87.6891   12.2605 N.ar    1  UNL1       -0.2361
     11 C          62.9453   83.8205   13.1371 C.ar    1  UNL1        0.0192
     12 C          63.2107   83.0927   11.8526 C.ar    1  UNL1        0.0015
     13 C          62.9221   81.6243   11.7490 C.ar    1  UNL1        0.0000
     14 C          62.3680   80.8838   12.9300 C.ar    1  UNL1        0.0000
     15 C          62.1026   81.6117   14.2145 C.ar    1  UNL1        0.0000
     16 C          62.3912   83.0799   14.3180 C.ar    1  UNL1        0.0015
     17 C          65.4331   91.6555   14.6119 C.3     1  UNL1        0.0960
     18 C          66.6002   92.2441   13.8762 C.3     1  UNL1        0.0664
     19 C          66.3713   93.0721   12.6466 C.ar    1  UNL1        0.0558
     20 C          66.0079   92.5511   11.2877 C.ar    1  UNL1        0.1131
     21 N          65.8776   93.7235   10.3613 N.ar    1  UNL1       -0.2229
     22 C          66.1604   94.9693   11.1476 C.ar    1  UNL1        0.1748
     23 N          66.4656   94.5666   12.5600 N.ar    1  UNL1       -0.3381
     24 H          66.6886   95.1763   13.3002 H       1  UNL1        0.1672
@<TRIPOS>BOND
     1     1     2    2
     2     2     3   am
     3     3    17    1
     4    17    18    1
     5    18    19    1
     6    19    20   ar
     7    20    21   ar
     8    21    22   ar
     9    22    23   ar
    10     2     5    1
    11     5     6   ar
    12     6     7   ar
    13     7     8   ar
    14     8    11    1
    15    11    12   ar
    16    12    13   ar
    17    13    14   ar
    18    14    15   ar
    19    15    16   ar
    20     8     9   ar
    21     9    10   ar
    22    23    19   ar
    23    10     5   ar
    24    16    11   ar
    25     3     4    1
    26    23    24    1
@<TRIPOS>MOLECULE
*****
 24 26 0 0 0
SMALL
GASTEIGER

@<TRIPOS>ATOM
      1 O          63.5050   91.2306   14.7610 O.2     1  UNL1       -0.2684
      2 C          64.1127   91.0399   13.4029 C.2     1  UNL1        0.2652
      3 N          65.3908   91.7402   13.0481 N.am    1  UNL1       -0.2992
      4 H          65.7897   91.6150   12.1568 H       1  UNL1        0.1498
      5 C          63.4423   90.1487   12.3997 C.ar    1  UNL1        0.1535
      6 C          62.8821   90.7307   11.1357 C.ar    1  UNL1        0.1225
      7 N          62.2117   89.8395   10.1326 N.ar    1  UNL1       -0.2405
      8 C          62.1014   88.3665   10.3933 C.ar    1  UNL1        0.1004
      9 C          62.6616   87.7846   11.6573 C.ar    1  UNL1        0.1181
     10 N          63.3320   88.6757   12.6604 N.ar    1  UNL1       -0.2361
     11 C          61.4310   87.4754    9.3901 C.ar    1  UNL1        0.0192
     12 C          62.1954   86.3510    8.7566 C.ar    1  UNL1        0.0015
     13 C          61.5249   85.4598    7.7533 C.ar    1  UNL1        0.0000
     14 C          60.0901   85.6932    7.3836 C.ar    1  UNL1        0.0000
     15 C          59.3256   86.8176    8.0172 C.ar    1  UNL1        0.0000
     16 C          59.9961   87.7087    9.0204 C.ar    1  UNL1        0.0015
     17 C          66.0613   92.6313   14.0514 C.3     1  UNL1        0.0960
     18 C          66.5021   94.0090   13.6545 C.3     1  UNL1        0.0664
     19 C          66.5746   94.3844   12.2041 C.ar    1  UNL1        0.0558
     20 C          66.1105   95.6785   11.6039 C.ar    1  UNL1        0.1131
     21 N          66.3731   95.6256   10.1281 N.ar    1  UNL1       -0.2229
     22 C          66.9996   94.2988    9.8160 C.ar    1  UNL1        0.1748
     23 N          67.1241   93.5318   11.0991 N.ar    1  UNL1       -0.3381
     24 H          67.5004   92.6275   11.1985 H       1  UNL1        0.1672
@<TRIPOS>BOND
     1     1     2    2
     2     2     3   am
     3     3    17    1
     4    17    18    1
     5    18    19    1
     6    19    20   ar
     7    20    21   ar
     8    21    22   ar
     9    22    23   ar
    10     2     5    1
    11     5     6   ar
    12     6     7   ar
    13     7     8   ar
    14     8    11    1
    15    11    12   ar
    16    12    13   ar
    17    13    14   ar
    18    14    15   ar
    19    15    16   ar
    20     8     9   ar
    21     9    10   ar
    22    23    19   ar
    23    10     5   ar
    24    16    11   ar
    25     3     4    1
    26    23    24    1
@<TRIPOS>MOLECULE
*****
 24 26 0 0 0
SMALL
GASTEIGER

@<TRIPOS>ATOM
      1 O          62.8362   90.0067   14.9463 O.2     1  UNL1       -0.2684
      2 C          63.6465   89.9744   13.6844 C.2     1  UNL1        0.2652
      3 N          64.8988   90.7929   13.5762 N.am    1  UNL1       -0.2992
      4 H          65.4306   90.7717   12.7479 H       1  UNL1        0.1498
      5 C          63.2044   89.1237   12.5308 C.ar    1  UNL1        0.1535
      6 C          62.7725   89.7672   11.2465 C.ar    1  UNL1        0.1225
      7 N          62.3304   88.9165   10.0929 N.ar    1  UNL1       -0.2405
      8 C          62.3202   87.4223   10.2236 C.ar    1  UNL1        0.1004
      9 C          62.7521   86.7787   11.5078 C.ar    1  UNL1        0.1181
     10 N          63.1941   87.6294   12.6614 N.ar    1  UNL1       -0.2361
     11 C          61.8781   86.5715    9.0699 C.ar    1  UNL1        0.0192
     12 C          60.4687   86.6656    8.5655 C.ar    1  UNL1        0.0015
     13 C          60.0266   85.8149    7.4118 C.ar    1  UNL1        0.0000
     14 C          60.9940   84.8701    6.7626 C.ar    1  UNL1        0.0000
     15 C          62.4035   84.7760    7.2672 C.ar    1  UNL1        0.0000
     16 C          62.8455   85.6267    8.4208 C.ar    1  UNL1        0.0015
     17 C          65.3409   91.6436   14.7298 C.3     1  UNL1        0.0960
     18 C          66.2707   92.7975   14.4978 C.3     1  UNL1        0.0664
     19 C          66.5066   93.3023   13.1051 C.ar    1  UNL1        0.0558
     20 C          67.2291   92.5710   12.0128 C.ar    1  UNL1        0.1131
     21 N          67.2304   93.4438   10.7928 N.ar    1  UNL1       -0.2229
     22 C          66.5085   94.7144   11.1312 C.ar    1  UNL1        0.1748
     23 N          66.0612   94.6270   12.5603 N.ar    1  UNL1       -0.3381
     24 H          65.5628   95.3177   13.0540 H       1  UNL1        0.1672
@<TRIPOS>BOND
     1     1     2    2
     2     2     3   am
     3     3    17    1
     4    17    18    1
     5    18    19    1
     6    19    20   ar
     7    20    21   ar
     8    21    22   ar
     9    22    23   ar
    10     2     5    1
    11     5     6   ar
    12     6     7   ar
    13     7     8   ar
    14     8    11    1
    15    11    12   ar
    16    12    13   ar
    17    13    14   ar
    18    14    15   ar
    19    15    16   ar
    20     8     9   ar
    21     9    10   ar
    22    23    19   ar
    23    10     5   ar
    24    16    11   ar
    25     3     4    1
    26    23    24    1
@<TRIPOS>MOLECULE
*****
 24 26 0 0 0
SMALL
GASTEIGER

@<TRIPOS>ATOM
      1 O          63.1131   90.5251   15.3752 O.2     1  UNL1       -0.2684
      2 C          64.2001   89.7989   14.6396 C.2     1  UNL1        0.2652
      3 N          65.5096   90.4800   14.3728 N.am    1  UNL1       -0.2992
      4 H          66.2230   90.0033   13.8900 H       1  UNL1        0.1498
      5 C          63.9775   88.3914   14.1709 C.ar    1  UNL1        0.1535
      6 C          63.3725   88.1369   12.8221 C.ar    1  UNL1        0.1225
      7 N          63.1499   86.7296   12.3535 N.ar    1  UNL1       -0.2405
      8 C          63.5323   85.5767   13.2336 C.ar    1  UNL1        0.1004
      9 C          64.1373   85.8311   14.5823 C.ar    1  UNL1        0.1181
     10 N          64.3599   87.2385   15.0510 N.ar    1  UNL1       -0.2361
     11 C          63.3097   84.1692   12.7648 C.ar    1  UNL1        0.0192
     12 C          62.6093   83.1846   13.6536 C.ar    1  UNL1        0.0015
     13 C          62.3867   81.7772   13.1849 C.ar    1  UNL1        0.0000
     14 C          62.8646   81.3544   11.8273 C.ar    1  UNL1        0.0000
     15 C          63.5651   82.3391   10.9386 C.ar    1  UNL1        0.0000
     16 C          63.7876   83.7464   11.4073 C.ar    1  UNL1        0.0015
     17 C          65.7322   91.8874   14.8415 C.3     1  UNL1        0.0960
     18 C          66.6489   92.7962   14.0776 C.3     1  UNL1        0.0664
     19 C          66.2456   93.3039   12.7250 C.ar    1  UNL1        0.0558
     20 C          65.5346   92.5173   11.6640 C.ar    1  UNL1        0.1131
     21 N          65.3320   93.4146   10.4792 N.ar    1  UNL1       -0.2229
     22 C          65.9178   94.7558   10.8080 C.ar    1  UNL1        0.1748
     23 N          66.4824   94.6874   12.1960 N.ar    1  UNL1       -0.3381
     24 H          66.9298   95.4216   12.6756 H       1  UNL1        0.1672
@<TRIPOS>BOND
     1     1     2    2
     2     2     3   am
     3     3    17    1
     4    17    18    1
     5    18    19    1
     6    19    20   ar
     7    20    21   ar
     8    21    22   ar
     9    22    23   ar
    10     2     5    1
    11     5     6   ar
    12     6     7   ar
    13     7     8   ar
    14     8    11    1
    15    11    12   ar
    16    12    13   ar
    17    13    14   ar
    18    14    15   ar
    19    15    16   ar
    20     8     9   ar
    21     9    10   ar
    22    23    19   ar
    23    10     5   ar
    24    16    11   ar
    25     3     4    1
    26    23    24    1
