@<TRIPOS>MOLECULE
*****
 46 51 0 0 0
SMALL
GASTEIGER

@<TRIPOS>ATOM
      1 C          63.0285   86.8853   12.1745 C.3     1  UNL1        0.1862
      2 C          63.1031   88.3708   12.3690 C.2     1  UNL1        0.2511
      3 O          63.1097   89.1919   11.1138 O.2     1  UNL1       -0.2726
      4 N          63.1720   89.1437   13.6527 N.am    1  UNL1       -0.2502
      5 C          63.1832   88.6220   15.0590 C.ar    1  UNL1        0.0883
      6 C          63.2610   89.7389   16.0572 C.ar    1  UNL1        0.0180
      7 C          63.2839   89.4324   17.5255 C.ar    1  UNL1        0.0015
      8 C          63.2291   88.0089   17.9953 C.ar    1  UNL1        0.0032
      9 C          63.1513   86.8920   16.9971 C.ar    1  UNL1        0.0382
     10 C          63.1284   87.1985   15.5290 C.ar    1  UNL1        0.1518
     11 O          63.0488   85.9452   14.7086 O.3     1  UNL1       -0.4790
     12 C          63.0043   85.8058   13.2158 C.3     1  UNL1        0.1626
     13 C          62.9745   84.6517   14.1735 C.3     1  UNL1        0.0743
     14 C          62.8954   83.2472   13.6530 C.3     1  UNL1        0.1458
     15 O          62.8461   82.9967   12.1749 O.3     1  UNL1       -0.3535
     16 C          62.8759   84.1508   11.2172 C.3     1  UNL1        0.1458
     17 C          62.9550   85.5553   11.7377 C.3     1  UNL1        0.0743
     18 C          61.6637   86.4179   10.0137 C.2     1  UNL1        0.2371
     19 O          60.4154   86.8863   10.7009 O.2     1  UNL1       -0.2737
     20 N          62.9704   86.4174   10.7506 N.am    1  UNL1       -0.2945
     21 H          63.7897   86.1100   10.2996 H       1  UNL1        0.1500
     22 C          61.6056   85.9500    8.5898 C.3     1  UNL1        0.1316
     23 C          62.8090   85.3134    7.9599 C.3     1  UNL1        0.0270
     24 C          59.6430   87.4445    7.7744 C.3     1  UNL1        0.0862
     25 N          60.3442   86.1186    7.7958 N.3     1  UNL1       -0.2902
     26 H          60.5727   85.8907    6.8282 H       1  UNL1        0.1237
     27 C          63.2384   90.6356   13.5115 C.3     1  UNL1        0.1270
     28 C          64.5201   91.2930   13.0933 C.ar    1  UNL1        0.0255
     29 C          64.8701   91.7388   11.7045 C.ar    1  UNL1        0.1310
     30 N          66.2432   92.3414   11.7434 N.ar    1  UNL1       -0.2978
     31 C          66.7418   92.2680   13.1562 C.ar    1  UNL1        0.0644
     32 C          68.0279   92.7075   13.7908 C.ar    1  UNL1        0.0175
     33 C          68.2491   92.4990   15.2596 C.ar    1  UNL1        0.0015
     34 C          67.1841   91.8510   16.0939 C.ar    1  UNL1        0.0001
     35 C          65.8980   91.4116   15.4593 C.ar    1  UNL1        0.0013
     36 C          65.6768   91.6201   13.9905 C.ar    1  UNL1        0.0159
     37 C          66.9871   92.9164   10.5747 C.ar    1  UNL1        0.0741
     38 C          67.6906   92.0062    9.6120 C.ar    1  UNL1        0.0182
     39 C          68.4345   92.5813    8.4433 C.ar    1  UNL1        0.0015
     40 C          68.4749   94.0665    8.2372 C.ar    1  UNL1        0.0008
     41 C          67.7714   94.9767    9.1998 C.ar    1  UNL1        0.0117
     42 C          67.0275   94.4016   10.3685 C.ar    1  UNL1        0.0845
     43 C          66.3240   95.3118   11.3311 C.1     1  UNL1        0.1019
     44 N          65.6204   96.2220   12.2937 N.1     1  UNL1       -0.1908
     45 C          63.9999   91.6055   10.4901 C.1     1  UNL1        0.1180
     46 N          63.1296   91.4721    9.2756 N.1     1  UNL1       -0.1893
@<TRIPOS>BOND
     1    24    25    1
     2    25    22    1
     3    22    23    1
     4    22    18    1
     5    18    19    2
     6    18    20   am
     7     1    20    1
     8     1     2    1
     9     2     3    2
    10     2     4   am
    11     4    27    1
    12    27    28    1
    13    28    29   ar
    14    29    45    1
    15    45    46    3
    16    29    30   ar
    17    30    37    1
    18    37    38   ar
    19    38    39   ar
    20    39    40   ar
    21    40    41   ar
    22    41    42   ar
    23    42    43    1
    24    43    44    3
    25    30    31   ar
    26    31    32   ar
    27    32    33   ar
    28    33    34   ar
    29    34    35   ar
    30    35    36   ar
    31     4     5    1
    32     5     6   ar
    33     6     7   ar
    34     7     8   ar
    35     8     9   ar
    36     9    10   ar
    37    10    11    1
    38    11    12    1
    39    12    13    1
    40    13    14    1
    41    14    15    1
    42    15    16    1
    43    16    17    1
    44    12     1    1
    45    36    28   ar
    46    10     5   ar
    47    17    12    1
    48    42    37   ar
    49    36    31   ar
    50    25    26    1
    51    20    21    1
@<TRIPOS>MOLECULE
*****
 46 51 0 0 0
SMALL
GASTEIGER

@<TRIPOS>ATOM
      1 C          65.6813   91.6033   12.3518 C.3     1  UNL1        0.1862
      2 C          64.3658   91.1133   11.8231 C.2     1  UNL1        0.2511
      3 O          64.1798   91.2221   10.3387 O.2     1  UNL1       -0.2726
      4 N          63.2117   90.5290   12.5825 N.am    1  UNL1       -0.2502
      5 C          63.0881   90.2904   14.0582 C.ar    1  UNL1        0.0883
      6 C          61.7607   89.6847   14.4061 C.ar    1  UNL1        0.0180
      7 C          61.4331   89.3657   15.8348 C.ar    1  UNL1        0.0015
      8 C          62.4331   89.6524   16.9155 C.ar    1  UNL1        0.0032
      9 C          63.7605   90.2581   16.5676 C.ar    1  UNL1        0.0382
     10 C          64.0880   90.5771   15.1390 C.ar    1  UNL1        0.1518
     11 O          65.4586   91.1732   15.0110 O.3     1  UNL1       -0.4790
     12 C          66.1676   91.6299   13.7705 C.3     1  UNL1        0.1626
     13 C          66.7493   91.7017   15.1513 C.3     1  UNL1        0.0743
     14 C          68.1268   92.2587   15.3567 C.3     1  UNL1        0.1458
     15 O          68.9226   92.7439   14.1814 O.3     1  UNL1       -0.3535
     16 C          68.3409   92.6721   12.8007 C.3     1  UNL1        0.1458
     17 C          66.9634   92.1151   12.5952 C.3     1  UNL1        0.0743
     18 C          66.4761   93.5355   10.8075 C.2     1  UNL1        0.2371
     19 O          65.3599   94.3998   11.3145 O.2     1  UNL1       -0.2737
     20 N          66.6368   92.1371   11.3262 N.am    1  UNL1       -0.2945
     21 H          67.3694   91.5698   10.9934 H       1  UNL1        0.1500
     22 C          67.4317   94.0694    9.7819 C.3     1  UNL1        0.1316
     23 C          68.3226   93.1290    9.0256 C.3     1  UNL1        0.0270
     24 C          66.8738   96.1068    8.2693 C.3     1  UNL1        0.0862
     25 N          67.4962   95.5435    9.5125 N.3     1  UNL1       -0.2902
     26 H          67.0476   96.0072   10.3025 H       1  UNL1        0.1237
     27 C          62.0243   90.1307   11.7571 C.3     1  UNL1        0.1270
     28 C          61.9051   88.7266   11.2432 C.ar    1  UNL1        0.0255
     29 C          62.5822   87.5174   11.8169 C.ar    1  UNL1        0.1310
     30 N          62.1835   86.3286   10.9935 N.ar    1  UNL1       -0.2978
     31 C          61.2600   86.8032    9.9110 C.ar    1  UNL1        0.0644
     32 C          60.5534   86.0773    8.8046 C.ar    1  UNL1        0.0175
     33 C          59.6749   86.8335    7.8527 C.ar    1  UNL1        0.0015
     34 C          59.5028   88.3156    8.0070 C.ar    1  UNL1        0.0001
     35 C          60.2094   89.0415    9.1133 C.ar    1  UNL1        0.0013
     36 C          61.0879   88.2853   10.0653 C.ar    1  UNL1        0.0159
     37 C          62.6299   84.9136   11.2139 C.ar    1  UNL1        0.0741
     38 C          62.5287   84.2992   12.5787 C.ar    1  UNL1        0.0182
     39 C          62.9751   82.8843   12.7990 C.ar    1  UNL1        0.0015
     40 C          63.5228   82.0837   11.6549 C.ar    1  UNL1        0.0008
     41 C          63.6240   82.6981   10.2902 C.ar    1  UNL1        0.0117
     42 C          63.1776   84.1131   10.0698 C.ar    1  UNL1        0.0845
     43 C          63.2788   84.7274    8.7052 C.1     1  UNL1        0.1019
     44 N          63.3800   85.3418    7.3405 N.1     1  UNL1       -0.1908
     45 C          63.4973   87.4998   13.0052 C.1     1  UNL1        0.1180
     46 N          64.4125   87.4823   14.1935 N.1     1  UNL1       -0.1893
@<TRIPOS>BOND
     1    24    25    1
     2    25    22    1
     3    22    23    1
     4    22    18    1
     5    18    19    2
     6    18    20   am
     7     1    20    1
     8     1     2    1
     9     2     3    2
    10     2     4   am
    11     4    27    1
    12    27    28    1
    13    28    29   ar
    14    29    45    1
    15    45    46    3
    16    29    30   ar
    17    30    37    1
    18    37    38   ar
    19    38    39   ar
    20    39    40   ar
    21    40    41   ar
    22    41    42   ar
    23    42    43    1
    24    43    44    3
    25    30    31   ar
    26    31    32   ar
    27    32    33   ar
    28    33    34   ar
    29    34    35   ar
    30    35    36   ar
    31     4     5    1
    32     5     6   ar
    33     6     7   ar
    34     7     8   ar
    35     8     9   ar
    36     9    10   ar
    37    10    11    1
    38    11    12    1
    39    12    13    1
    40    13    14    1
    41    14    15    1
    42    15    16    1
    43    16    17    1
    44    12     1    1
    45    36    28   ar
    46    10     5   ar
    47    17    12    1
    48    42    37   ar
    49    36    31   ar
    50    25    26    1
    51    20    21    1
@<TRIPOS>MOLECULE
*****
 46 51 0 0 0
SMALL
GASTEIGER

@<TRIPOS>ATOM
      1 C          62.2393   87.8526   10.4643 C.3     1  UNL1        0.1862
      2 C          62.3947   89.0125   11.4027 C.2     1  UNL1        0.2511
      3 O          61.8908   90.3314   10.8962 O.2     1  UNL1       -0.2726
      4 N          62.9874   89.0278   12.7806 N.am    1  UNL1       -0.2502
      5 C          63.5710   87.8871   13.5604 C.ar    1  UNL1        0.0883
      6 C          64.0566   88.3355   14.9068 C.ar    1  UNL1        0.0180
      7 C          64.6774   87.3460   15.8480 C.ar    1  UNL1        0.0015
      8 C          64.8124   85.9081   15.4425 C.ar    1  UNL1        0.0032
      9 C          64.3268   85.4598   14.0960 C.ar    1  UNL1        0.0382
     10 C          63.7061   86.4492   13.1549 C.ar    1  UNL1        0.1518
     11 O          63.2910   85.7970   11.8695 O.3     1  UNL1       -0.4790
     12 C          62.6382   86.4215   10.6721 C.3     1  UNL1        0.1626
     13 C          62.9973   84.9690   10.7772 C.3     1  UNL1        0.0743
     14 C          62.7047   84.0397    9.6367 C.3     1  UNL1        0.1458
     15 O          62.0529   84.5629    8.3912 O.3     1  UNL1       -0.3535
     16 C          61.6938   86.0154    8.2860 C.3     1  UNL1        0.1458
     17 C          61.9864   86.9448    9.4265 C.3     1  UNL1        0.0743
     18 C          60.1075   88.2632    9.0371 C.2     1  UNL1        0.2371
     19 O          59.2533   88.0490   10.2514 O.2     1  UNL1       -0.2737
     20 N          61.6005   88.1649    9.1436 N.am    1  UNL1       -0.2945
     21 H          62.1612   88.3055    8.3466 H       1  UNL1        0.1500
     22 C          59.4688   88.5755    7.7163 C.3     1  UNL1        0.1316
     23 C          58.5459   87.5815    7.0759 C.3     1  UNL1        0.0270
     24 C          58.9649   90.2836    5.8245 C.3     1  UNL1        0.0862
     25 N          59.7528   89.8819    7.0361 N.3     1  UNL1       -0.2902
     26 H          59.6140   90.6132    7.7334 H       1  UNL1        0.1237
     27 C          62.9978   90.3601   13.4697 C.3     1  UNL1        0.1270
     28 C          64.0941   91.3434   13.1847 C.ar    1  UNL1        0.0255
     29 C          64.4101   91.9489   11.8493 C.ar    1  UNL1        0.1310
     30 N          65.5782   92.8736   12.0244 N.ar    1  UNL1       -0.2978
     31 C          65.9841   92.8394   13.4680 C.ar    1  UNL1        0.0644
     32 C          67.0704   93.5473   14.2222 C.ar    1  UNL1        0.0175
     33 C          67.2394   93.3095   15.6935 C.ar    1  UNL1        0.0015
     34 C          66.3222   92.3638   16.4107 C.ar    1  UNL1        0.0001
     35 C          65.2359   91.6559   15.6565 C.ar    1  UNL1        0.0013
     36 C          65.0668   91.8937   14.1852 C.ar    1  UNL1        0.0159
     37 C          66.2266   93.6891   10.9453 C.ar    1  UNL1        0.0741
     38 C          65.5178   94.8844   10.3802 C.ar    1  UNL1        0.0182
     39 C          66.1663   95.6998    9.3011 C.ar    1  UNL1        0.0015
     40 C          67.5233   95.3202    8.7870 C.ar    1  UNL1        0.0008
     41 C          68.2320   94.1250    9.3521 C.ar    1  UNL1        0.0117
     42 C          67.5836   93.3095   10.4312 C.ar    1  UNL1        0.0845
     43 C          68.2923   92.1143   10.9962 C.1     1  UNL1        0.1019
     44 N          69.0010   90.9192   11.5613 N.1     1  UNL1       -0.1908
     45 C          63.6854   91.6775   10.5644 C.1     1  UNL1        0.1180
     46 N          62.9606   91.4061    9.2794 N.1     1  UNL1       -0.1893
@<TRIPOS>BOND
     1    24    25    1
     2    25    22    1
     3    22    23    1
     4    22    18    1
     5    18    19    2
     6    18    20   am
     7     1    20    1
     8     1     2    1
     9     2     3    2
    10     2     4   am
    11     4    27    1
    12    27    28    1
    13    28    29   ar
    14    29    45    1
    15    45    46    3
    16    29    30   ar
    17    30    37    1
    18    37    38   ar
    19    38    39   ar
    20    39    40   ar
    21    40    41   ar
    22    41    42   ar
    23    42    43    1
    24    43    44    3
    25    30    31   ar
    26    31    32   ar
    27    32    33   ar
    28    33    34   ar
    29    34    35   ar
    30    35    36   ar
    31     4     5    1
    32     5     6   ar
    33     6     7   ar
    34     7     8   ar
    35     8     9   ar
    36     9    10   ar
    37    10    11    1
    38    11    12    1
    39    12    13    1
    40    13    14    1
    41    14    15    1
    42    15    16    1
    43    16    17    1
    44    12     1    1
    45    36    28   ar
    46    10     5   ar
    47    17    12    1
    48    42    37   ar
    49    36    31   ar
    50    25    26    1
    51    20    21    1
@<TRIPOS>MOLECULE
*****
 46 51 0 0 0
SMALL
GASTEIGER

@<TRIPOS>ATOM
      1 C          57.9575   93.9769   -3.6426 C.3     1  UNL1        0.1862
      2 C          58.9302   95.0873   -3.3763 C.2     1  UNL1        0.2511
      3 O          59.1565   96.0405   -4.5122 O.2     1  UNL1       -0.2726
      4 N          59.7065   95.3705   -2.1245 N.am    1  UNL1       -0.2502
      5 C          59.7018   94.6133   -0.8297 C.ar    1  UNL1        0.0883
      6 C          60.6278   95.2359    0.1726 C.ar    1  UNL1        0.0180
      7 C          60.7718   94.6311    1.5378 C.ar    1  UNL1        0.0015
      8 C          59.9896   93.4036    1.9005 C.ar    1  UNL1        0.0032
      9 C          59.0636   92.7809    0.8982 C.ar    1  UNL1        0.0382
     10 C          58.9197   93.3857   -0.4669 C.ar    1  UNL1        0.1518
     11 O          57.9490   92.6123   -1.3094 O.3     1  UNL1       -0.4790
     12 C          57.5208   92.8754   -2.7227 C.3     1  UNL1        0.1626
     13 C          57.0185   91.7366   -1.8857 C.3     1  UNL1        0.0743
     14 C          56.0219   90.7705   -2.4543 C.3     1  UNL1        0.1458
     15 O          55.5276   90.9432   -3.8599 O.3     1  UNL1       -0.3535
     16 C          56.0299   92.0821   -4.6970 C.3     1  UNL1        0.1458
     17 C          57.0266   93.0481   -4.1284 C.3     1  UNL1        0.0743
     18 C          56.0998   94.7668   -5.2782 C.2     1  UNL1        0.2371
     19 O          55.4777   95.5775   -4.1800 O.2     1  UNL1       -0.2737
     20 N          57.3398   93.9665   -5.0094 N.am    1  UNL1       -0.2945
     21 H          57.7481   93.4345   -5.7301 H       1  UNL1        0.1500
     22 C          55.4821   94.7565   -6.6450 C.3     1  UNL1        0.1316
     23 C          55.6389   93.5554   -7.5297 C.3     1  UNL1        0.0270
     24 C          53.2441   96.0647   -6.8192 C.3     1  UNL1        0.0862
     25 N          54.7075   95.9471   -7.1270 N.3     1  UNL1       -0.2902
     26 H          55.1588   96.7719   -6.7313 H       1  UNL1        0.1237
     27 C          60.6065   96.5695   -2.1740 C.3     1  UNL1        0.1270
     28 C          62.0587   96.4038   -2.5110 C.ar    1  UNL1        0.0255
     29 C          62.6193   96.0962   -3.8678 C.ar    1  UNL1        0.1310
     30 N          64.1124   96.0189   -3.7457 N.ar    1  UNL1       -0.2978
     31 C          64.4744   96.2788   -2.3135 C.ar    1  UNL1        0.0644
     32 C          65.7959   96.3295   -1.6055 C.ar    1  UNL1        0.0175
     33 C          65.8481   96.6181   -0.1345 C.ar    1  UNL1        0.0015
     34 C          64.5788   96.8560    0.6286 C.ar    1  UNL1        0.0001
     35 C          63.2574   96.8052   -0.0793 C.ar    1  UNL1        0.0013
     36 C          63.2052   96.5166   -1.5503 C.ar    1  UNL1        0.0159
     37 C          65.0745   95.7322   -4.8602 C.ar    1  UNL1        0.0741
     38 C          65.8270   96.8559   -5.5093 C.ar    1  UNL1        0.0182
     39 C          66.7890   96.5690   -6.6238 C.ar    1  UNL1        0.0015
     40 C          66.9986   95.1586   -7.0893 C.ar    1  UNL1        0.0008
     41 C          66.2462   94.0350   -6.4403 C.ar    1  UNL1        0.0117
     42 C          65.2841   94.3218   -5.3258 C.ar    1  UNL1        0.0845
     43 C          64.5317   93.1981   -4.6768 C.1     1  UNL1        0.1019
     44 N          63.7791   92.0745   -4.0279 N.1     1  UNL1       -0.1908
     45 C          61.8263   95.9003   -5.1258 C.1     1  UNL1        0.1180
     46 N          61.0333   95.7044   -6.3839 N.1     1  UNL1       -0.1893
@<TRIPOS>BOND
     1    24    25    1
     2    25    22    1
     3    22    23    1
     4    22    18    1
     5    18    19    2
     6    18    20   am
     7     1    20    1
     8     1     2    1
     9     2     3    2
    10     2     4   am
    11     4    27    1
    12    27    28    1
    13    28    29   ar
    14    29    45    1
    15    45    46    3
    16    29    30   ar
    17    30    37    1
    18    37    38   ar
    19    38    39   ar
    20    39    40   ar
    21    40    41   ar
    22    41    42   ar
    23    42    43    1
    24    43    44    3
    25    30    31   ar
    26    31    32   ar
    27    32    33   ar
    28    33    34   ar
    29    34    35   ar
    30    35    36   ar
    31     4     5    1
    32     5     6   ar
    33     6     7   ar
    34     7     8   ar
    35     8     9   ar
    36     9    10   ar
    37    10    11    1
    38    11    12    1
    39    12    13    1
    40    13    14    1
    41    14    15    1
    42    15    16    1
    43    16    17    1
    44    12     1    1
    45    36    28   ar
    46    10     5   ar
    47    17    12    1
    48    42    37   ar
    49    36    31   ar
    50    25    26    1
    51    20    21    1
@<TRIPOS>MOLECULE
*****
 46 51 0 0 0
SMALL
GASTEIGER

@<TRIPOS>ATOM
      1 C          64.6599   92.0143   12.2224 C.3     1  UNL1        0.1862
      2 C          63.5154   91.1111   11.8694 C.2     1  UNL1        0.2511
      3 O          63.0990   91.1213   10.4284 O.2     1  UNL1       -0.2726
      4 N          62.7324   90.1991   12.7667 N.am    1  UNL1       -0.2502
      5 C          62.9004   89.9651   14.2387 C.ar    1  UNL1        0.0883
      6 C          61.9049   88.9675   14.7521 C.ar    1  UNL1        0.0180
      7 C          61.9017   88.5900   16.2039 C.ar    1  UNL1        0.0015
      8 C          62.8943   89.2101   17.1422 C.ar    1  UNL1        0.0032
      9 C          63.8899   90.2077   16.6288 C.ar    1  UNL1        0.0382
     10 C          63.8930   90.5852   15.1771 C.ar    1  UNL1        0.1518
     11 O          64.9627   91.5925   14.8750 O.3     1  UNL1       -0.4790
     12 C          65.3039   92.2285   13.5601 C.3     1  UNL1        0.1626
     13 C          66.0172   92.5156   14.8480 C.3     1  UNL1        0.0743
     14 C          67.1527   93.4954   14.8742 C.3     1  UNL1        0.1458
     15 O          67.5749   94.1880   13.6125 O.3     1  UNL1       -0.3535
     16 C          66.8617   93.9009   12.3245 C.3     1  UNL1        0.1458
     17 C          65.7262   92.9211   12.2984 C.3     1  UNL1        0.0743
     18 C          66.6503   92.5688   10.6474 C.2     1  UNL1        0.2371
     19 O          67.4873   91.5355   11.3414 O.2     1  UNL1       -0.2737
     20 N          65.2365   92.8082   11.0879 N.am    1  UNL1       -0.2945
     21 H          64.6871   93.4863   10.6324 H       1  UNL1        0.1500
     22 C          67.2269   93.3627    9.5128 C.3     1  UNL1        0.1316
     23 C          68.5076   92.9250    8.8660 C.3     1  UNL1        0.0270
     24 C          67.1580   95.9414    9.2032 C.3     1  UNL1        0.0862
     25 N          66.5229   94.5941    9.0251 N.3     1  UNL1       -0.2902
     26 H          66.3717   94.4699    8.0241 H       1  UNL1        0.1237
     27 C          61.6365   89.4180   12.1044 C.3     1  UNL1        0.1270
     28 C          61.9556   88.1429   11.3817 C.ar    1  UNL1        0.0255
     29 C          61.6511   87.8447    9.9435 C.ar    1  UNL1        0.1310
     30 N          62.1426   86.4596    9.6433 N.ar    1  UNL1       -0.2978
     31 C          62.7507   85.9018   10.8959 C.ar    1  UNL1        0.0644
     32 C          63.3947   84.5810   11.1971 C.ar    1  UNL1        0.0175
     33 C          63.9232   84.3006   12.5726 C.ar    1  UNL1        0.0015
     34 C          63.8076   85.3409   13.6470 C.ar    1  UNL1        0.0001
     35 C          63.1635   86.6617   13.3458 C.ar    1  UNL1        0.0013
     36 C          62.6351   86.9422   11.9703 C.ar    1  UNL1        0.0159
     37 C          62.0433   85.7558    8.3224 C.ar    1  UNL1        0.0741
     38 C          63.2556   85.1025    7.7276 C.ar    1  UNL1        0.0182
     39 C          63.1562   84.3988    6.4067 C.ar    1  UNL1        0.0015
     40 C          61.8448   84.3484    5.6805 C.ar    1  UNL1        0.0008
     41 C          60.6326   85.0017    6.2752 C.ar    1  UNL1        0.0117
     42 C          60.7318   85.7054    7.5961 C.ar    1  UNL1        0.0845
     43 C          59.5196   86.3587    8.1909 C.1     1  UNL1        0.1019
     44 N          58.3074   87.0121    8.7855 N.1     1  UNL1       -0.1908
     45 C          60.9742   88.7691    8.9755 C.1     1  UNL1        0.1180
     46 N          60.2972   89.6935    8.0075 N.1     1  UNL1       -0.1893
@<TRIPOS>BOND
     1    24    25    1
     2    25    22    1
     3    22    23    1
     4    22    18    1
     5    18    19    2
     6    18    20   am
     7     1    20    1
     8     1     2    1
     9     2     3    2
    10     2     4   am
    11     4    27    1
    12    27    28    1
    13    28    29   ar
    14    29    45    1
    15    45    46    3
    16    29    30   ar
    17    30    37    1
    18    37    38   ar
    19    38    39   ar
    20    39    40   ar
    21    40    41   ar
    22    41    42   ar
    23    42    43    1
    24    43    44    3
    25    30    31   ar
    26    31    32   ar
    27    32    33   ar
    28    33    34   ar
    29    34    35   ar
    30    35    36   ar
    31     4     5    1
    32     5     6   ar
    33     6     7   ar
    34     7     8   ar
    35     8     9   ar
    36     9    10   ar
    37    10    11    1
    38    11    12    1
    39    12    13    1
    40    13    14    1
    41    14    15    1
    42    15    16    1
    43    16    17    1
    44    12     1    1
    45    36    28   ar
    46    10     5   ar
    47    17    12    1
    48    42    37   ar
    49    36    31   ar
    50    25    26    1
    51    20    21    1
@<TRIPOS>MOLECULE
*****
 46 51 0 0 0
SMALL
GASTEIGER

@<TRIPOS>ATOM
      1 C          63.3994   86.8530   12.7754 C.3     1  UNL1        0.1862
      2 C          63.5335   88.2530   13.2969 C.2     1  UNL1        0.2511
      3 O          64.5859   88.4587   14.3458 O.2     1  UNL1       -0.2726
      4 N          62.7545   89.4745   12.9083 N.am    1  UNL1       -0.2502
      5 C          61.6489   89.5976   11.9021 C.ar    1  UNL1        0.0883
      6 C          61.1381   91.0055   11.8187 C.ar    1  UNL1        0.0180
      7 C          60.0277   91.3455   10.8693 C.ar    1  UNL1        0.0015
      8 C          59.4281   90.2776   10.0032 C.ar    1  UNL1        0.0032
      9 C          59.9388   88.8697   10.0866 C.ar    1  UNL1        0.0382
     10 C          61.0492   88.5297   11.0360 C.ar    1  UNL1        0.1518
     11 O          61.4071   87.0749   10.9623 O.3     1  UNL1       -0.4790
     12 C          62.4531   86.3287   11.7363 C.3     1  UNL1        0.1626
     13 C          61.5530   85.7033   10.7123 C.3     1  UNL1        0.0743
     14 C          61.6677   84.2392   10.4070 C.3     1  UNL1        0.1458
     15 O          62.6826   83.4005   11.1257 O.3     1  UNL1       -0.3535
     16 C          63.5827   84.0259   12.1498 C.3     1  UNL1        0.1458
     17 C          63.4679   85.4899   12.4551 C.3     1  UNL1        0.0743
     18 C          63.8349   84.8718   14.3987 C.2     1  UNL1        0.2371
     19 O          62.3985   84.9090   14.8294 O.2     1  UNL1       -0.2737
     20 N          64.3354   85.8438   13.3716 N.am    1  UNL1       -0.2945
     21 H          65.2781   85.8194   13.0889 H       1  UNL1        0.1500
     22 C          64.7708   83.8626   14.9950 C.3     1  UNL1        0.1316
     23 C          66.2297   84.1828   15.1335 C.3     1  UNL1        0.0270
     24 C          63.4370   81.6844   14.5190 C.3     1  UNL1        0.0862
     25 N          64.2479   82.5333   15.4528 N.3     1  UNL1       -0.2902
     26 H          65.0576   81.9774   15.7281 H       1  UNL1        0.1237
     27 C          63.1308   90.7402   13.6200 C.3     1  UNL1        0.1270
     28 C          64.3822   91.4727   13.2362 C.ar    1  UNL1        0.0255
     29 C          64.8119   91.8123   11.8399 C.ar    1  UNL1        0.1310
     30 N          66.1190   92.5438   11.9222 N.ar    1  UNL1       -0.2978
     31 C          66.4970   92.6561   13.3694 C.ar    1  UNL1        0.0644
     32 C          67.6799   93.2757   14.0527 C.ar    1  UNL1        0.0175
     33 C          67.7894   93.2333   15.5480 C.ar    1  UNL1        0.0015
     34 C          66.7160   92.5713   16.3602 C.ar    1  UNL1        0.0001
     35 C          65.5331   91.9517   15.6769 C.ar    1  UNL1        0.0013
     36 C          65.4236   91.9941   14.1815 C.ar    1  UNL1        0.0159
     37 C          66.9093   93.0703   10.7611 C.ar    1  UNL1        0.0741
     38 C          67.6379   92.1204    9.8572 C.ar    1  UNL1        0.0182
     39 C          68.4281   92.6471    8.6962 C.ar    1  UNL1        0.0015
     40 C          68.4898   94.1235    8.4389 C.ar    1  UNL1        0.0008
     41 C          67.7613   95.0734    9.3427 C.ar    1  UNL1        0.0117
     42 C          66.9710   94.5468   10.5038 C.ar    1  UNL1        0.0845
     43 C          66.2425   95.4967   11.4076 C.1     1  UNL1        0.1019
     44 N          65.5139   96.4466   12.3114 N.1     1  UNL1       -0.1908
     45 C          64.0658   91.4791   10.5820 C.1     1  UNL1        0.1180
     46 N          63.3196   91.1460    9.3242 N.1     1  UNL1       -0.1893
@<TRIPOS>BOND
     1    24    25    1
     2    25    22    1
     3    22    23    1
     4    22    18    1
     5    18    19    2
     6    18    20   am
     7     1    20    1
     8     1     2    1
     9     2     3    2
    10     2     4   am
    11     4    27    1
    12    27    28    1
    13    28    29   ar
    14    29    45    1
    15    45    46    3
    16    29    30   ar
    17    30    37    1
    18    37    38   ar
    19    38    39   ar
    20    39    40   ar
    21    40    41   ar
    22    41    42   ar
    23    42    43    1
    24    43    44    3
    25    30    31   ar
    26    31    32   ar
    27    32    33   ar
    28    33    34   ar
    29    34    35   ar
    30    35    36   ar
    31     4     5    1
    32     5     6   ar
    33     6     7   ar
    34     7     8   ar
    35     8     9   ar
    36     9    10   ar
    37    10    11    1
    38    11    12    1
    39    12    13    1
    40    13    14    1
    41    14    15    1
    42    15    16    1
    43    16    17    1
    44    12     1    1
    45    36    28   ar
    46    10     5   ar
    47    17    12    1
    48    42    37   ar
    49    36    31   ar
    50    25    26    1
    51    20    21    1
@<TRIPOS>MOLECULE
*****
 46 51 0 0 0
SMALL
GASTEIGER

@<TRIPOS>ATOM
      1 C          63.0983   85.7036   11.8189 C.3     1  UNL1        0.1862
      2 C          62.8679   87.0659   12.4031 C.2     1  UNL1        0.2511
      3 O          63.4460   87.2948   13.7681 O.2     1  UNL1       -0.2726
      4 N          62.1358   88.2293   11.8028 N.am    1  UNL1       -0.2502
      5 C          61.4533   88.3179   10.4700 C.ar    1  UNL1        0.0883
      6 C          60.8389   89.6697   10.2578 C.ar    1  UNL1        0.0180
      7 C          60.1056   89.9687    8.9838 C.ar    1  UNL1        0.0015
      8 C          59.9867   88.9157    7.9221 C.ar    1  UNL1        0.0032
      9 C          60.6010   87.5639    8.1344 C.ar    1  UNL1        0.0382
     10 C          61.3343   87.2650    9.4083 C.ar    1  UNL1        0.1518
     11 O          61.8685   85.8633    9.4172 O.3     1  UNL1       -0.4790
     12 C          62.6536   85.1684   10.4900 C.3     1  UNL1        0.1626
     13 C          62.2586   84.5365    9.1882 C.3     1  UNL1        0.0743
     14 C          62.6508   83.1191    8.8932 C.3     1  UNL1        0.1458
     15 O          63.4379   82.3336    9.8999 O.3     1  UNL1       -0.3535
     16 C          63.8328   82.9655   11.2016 C.3     1  UNL1        0.1458
     17 C          63.4407   84.3830   11.4967 C.3     1  UNL1        0.0743
     18 C          63.2069   84.0599   13.8279 C.2     1  UNL1        0.2371
     19 O          61.7594   84.3224   14.1209 O.2     1  UNL1       -0.2737
     20 N          63.8764   84.7505   12.6769 N.am    1  UNL1       -0.2945
     21 H          64.8264   84.5783   12.4845 H       1  UNL1        0.1500
     22 C          63.9850   83.1068   14.6859 C.3     1  UNL1        0.1316
     23 C          64.9310   83.6334   15.7240 C.3     1  UNL1        0.0270
     24 C          62.5522   81.0828   13.9109 C.3     1  UNL1        0.0862
     25 N          63.8170   81.6271   14.5059 N.3     1  UNL1       -0.2902
     26 H          64.5820   81.3146   13.9080 H       1  UNL1        0.1237
     27 C          62.0786   89.4679   12.6469 C.3     1  UNL1        0.1270
     28 C          63.2935   90.3362   12.7880 C.ar    1  UNL1        0.0255
     29 C          64.1903   90.4094   13.9881 C.ar    1  UNL1        0.1310
     30 N          65.2761   91.4022   13.6954 N.ar    1  UNL1       -0.2978
     31 C          65.0503   91.9424   12.3145 C.ar    1  UNL1        0.0644
     32 C          65.8022   92.9491   11.4952 C.ar    1  UNL1        0.0175
     33 C          65.3287   93.2970   10.1151 C.ar    1  UNL1        0.0015
     34 C          64.1034   92.6382    9.5542 C.ar    1  UNL1        0.0001
     35 C          63.3516   91.6315   10.3735 C.ar    1  UNL1        0.0013
     36 C          63.8250   91.2836   11.7536 C.ar    1  UNL1        0.0159
     37 C          66.3917   91.7871   14.6213 C.ar    1  UNL1        0.0741
     38 C          67.8178   91.6358   14.1810 C.ar    1  UNL1        0.0182
     39 C          68.9333   92.0207   15.1069 C.ar    1  UNL1        0.0015
     40 C          68.6230   92.5569   16.4730 C.ar    1  UNL1        0.0008
     41 C          67.1971   92.7082   16.9132 C.ar    1  UNL1        0.0117
     42 C          66.0815   92.3233   15.9873 C.ar    1  UNL1        0.0845
     43 C          64.6556   92.4747   16.4276 C.1     1  UNL1        0.1019
     44 N          63.2296   92.6261   16.8678 N.1     1  UNL1       -0.1908
     45 C          64.0296   89.6274   15.2580 C.1     1  UNL1        0.1180
     46 N          63.8690   88.8453   16.5278 N.1     1  UNL1       -0.1893
@<TRIPOS>BOND
     1    24    25    1
     2    25    22    1
     3    22    23    1
     4    22    18    1
     5    18    19    2
     6    18    20   am
     7     1    20    1
     8     1     2    1
     9     2     3    2
    10     2     4   am
    11     4    27    1
    12    27    28    1
    13    28    29   ar
    14    29    45    1
    15    45    46    3
    16    29    30   ar
    17    30    37    1
    18    37    38   ar
    19    38    39   ar
    20    39    40   ar
    21    40    41   ar
    22    41    42   ar
    23    42    43    1
    24    43    44    3
    25    30    31   ar
    26    31    32   ar
    27    32    33   ar
    28    33    34   ar
    29    34    35   ar
    30    35    36   ar
    31     4     5    1
    32     5     6   ar
    33     6     7   ar
    34     7     8   ar
    35     8     9   ar
    36     9    10   ar
    37    10    11    1
    38    11    12    1
    39    12    13    1
    40    13    14    1
    41    14    15    1
    42    15    16    1
    43    16    17    1
    44    12     1    1
    45    36    28   ar
    46    10     5   ar
    47    17    12    1
    48    42    37   ar
    49    36    31   ar
    50    25    26    1
    51    20    21    1
