@<TRIPOS>MOLECULE
*****
 25 27 0 0 0
SMALL
GASTEIGER

@<TRIPOS>ATOM
      1 C          63.2479   83.5223   15.0159 C.3     1  UNL1        0.0749
      2 N          63.6143   82.1291   14.5983 N.3     1  UNL1       -0.2971
      3 H          64.5517   82.1782   14.1993 H       1  UNL1        0.1233
      4 C          62.7603   81.3939   13.6083 C.3     1  UNL1        0.0689
      5 C          62.7980   81.7735   12.1575 C.3     1  UNL1        0.0218
      6 C          63.7024   82.8768   11.6942 C.3     1  UNL1        0.0278
      7 F          60.6339   87.0406   11.1974 F       1  UNL1       -0.2042
      8 C          61.6200   86.0760   10.6084 C.ar    1  UNL1        0.1398
      9 C          62.0581   86.2286    9.1820 C.ar    1  UNL1        0.0296
     10 C          63.0442   85.2640    8.5929 C.ar    1  UNL1        0.0020
     11 C          63.5923   84.1467    9.4303 C.ar    1  UNL1       -0.0041
     12 C          63.1543   83.9941   10.8567 C.ar    1  UNL1       -0.0199
     13 C          62.1681   84.9587   11.4458 C.ar    1  UNL1        0.0254
     14 C          64.2946   84.5965   15.0444 C.3     1  UNL1        0.0630
     15 C          63.9374   85.9799   15.5011 C.ar    1  UNL1        0.0650
     16 C          63.2636   86.1817   16.8259 C.ar    1  UNL1        0.0356
     17 C          62.9064   87.5651   17.2827 C.ar    1  UNL1        0.1033
     18 N          63.2228   88.7467   16.4145 N.ar    1  UNL1       -0.2095
     19 C          63.8966   88.5448   15.0896 C.ar    1  UNL1        0.2378
     20 N          64.2539   87.1614   14.6329 N.ar    1  UNL1       -0.2154
     21 N          64.2131   89.7264   14.2214 N.ar    1  UNL1       -0.2558
     22 C          65.3012   90.7306   14.4614 C.ar    1  UNL1        0.1050
     23 C          65.2577   91.7360   13.3491 C.ar    1  UNL1        0.1197
     24 N          64.1427   91.3532   12.4216 N.ar    1  UNL1       -0.2219
     25 C          63.4970   90.1112   12.9607 C.ar    1  UNL1        0.1851
@<TRIPOS>BOND
     1     7     8    1
     2     8     9   ar
     3     9    10   ar
     4    10    11   ar
     5    11    12   ar
     6    12     6    1
     7     6     5    1
     8     5     4    1
     9     4     2    1
    10     2     1    1
    11     1    14    1
    12    14    15    1
    13    15    16   ar
    14    16    17   ar
    15    17    18   ar
    16    18    19   ar
    17    19    21    1
    18    21    22   ar
    19    22    23   ar
    20    23    24   ar
    21    24    25   ar
    22    19    20   ar
    23    12    13   ar
    24    13     8   ar
    25    20    15   ar
    26    25    21   ar
    27     2     3    1
@<TRIPOS>MOLECULE
*****
 25 27 0 0 0
SMALL
GASTEIGER

@<TRIPOS>ATOM
      1 C          63.4476   90.4744   14.0485 C.3     1  UNL1        0.0749
      2 N          62.1528   90.0083   13.4519 N.3     1  UNL1       -0.2971
      3 H          62.0584   89.0205   13.6882 H       1  UNL1        0.1233
      4 C          61.9233   90.1239   11.9741 C.3     1  UNL1        0.0689
      5 C          62.6052   89.1756   11.0328 C.3     1  UNL1        0.0218
      6 C          62.2311   87.7231   11.0299 C.3     1  UNL1        0.0278
      7 F          62.2856   84.6366    6.8501 F       1  UNL1       -0.2042
      8 C          61.5579   85.5881    7.7529 C.ar    1  UNL1        0.1398
      9 C          60.1298   85.9479    7.4686 C.ar    1  UNL1        0.0296
     10 C          59.4020   86.8995    8.3713 C.ar    1  UNL1        0.0020
     11 C          60.1025   87.4912    9.5584 C.ar    1  UNL1       -0.0041
     12 C          61.5306   87.1313    9.8427 C.ar    1  UNL1       -0.0199
     13 C          62.2583   86.1798    8.9400 C.ar    1  UNL1        0.0254
     14 C          64.4098   89.4780   14.6244 C.3     1  UNL1        0.0630
     15 C          63.8943   88.2595   15.3310 C.ar    1  UNL1        0.0650
     16 C          63.2737   88.3873   16.6906 C.ar    1  UNL1        0.0356
     17 C          62.7582   87.1687   17.3973 C.ar    1  UNL1        0.1033
     18 N          62.8633   85.8224   16.7443 N.ar    1  UNL1       -0.2095
     19 C          63.4839   85.6946   15.3847 C.ar    1  UNL1        0.2378
     20 N          63.9994   86.9132   14.6781 N.ar    1  UNL1       -0.2154
     21 N          63.5890   84.3483   14.7317 N.ar    1  UNL1       -0.2558
     22 C          64.3413   84.0355   13.4723 C.ar    1  UNL1        0.1050
     23 C          64.1775   82.5722   13.1857 C.ar    1  UNL1        0.1197
     24 N          63.3239   81.9807   14.2681 N.ar    1  UNL1       -0.2219
     25 C          62.9602   83.0783   15.2236 C.ar    1  UNL1        0.1851
@<TRIPOS>BOND
     1     7     8    1
     2     8     9   ar
     3     9    10   ar
     4    10    11   ar
     5    11    12   ar
     6    12     6    1
     7     6     5    1
     8     5     4    1
     9     4     2    1
    10     2     1    1
    11     1    14    1
    12    14    15    1
    13    15    16   ar
    14    16    17   ar
    15    17    18   ar
    16    18    19   ar
    17    19    21    1
    18    21    22   ar
    19    22    23   ar
    20    23    24   ar
    21    24    25   ar
    22    19    20   ar
    23    12    13   ar
    24    13     8   ar
    25    20    15   ar
    26    25    21   ar
    27     2     3    1
@<TRIPOS>MOLECULE
*****
 25 27 0 0 0
SMALL
GASTEIGER

@<TRIPOS>ATOM
      1 C          63.6153   83.5515   14.7841 C.3     1  UNL1        0.0749
      2 N          62.8848   83.3150   13.4956 N.3     1  UNL1       -0.2971
      3 H          62.9915   82.3250   13.2741 H       1  UNL1        0.1233
      4 C          63.2709   84.0784   12.2635 C.3     1  UNL1        0.0689
      5 C          62.3744   85.1613   11.7404 C.3     1  UNL1        0.0218
      6 C          62.2933   85.4205   10.2653 C.3     1  UNL1        0.0278
      7 F          61.8267   90.5893   10.0090 F       1  UNL1       -0.2042
      8 C          61.3448   89.2210    9.6275 C.ar    1  UNL1        0.1398
      9 C          60.1479   89.0688    8.7365 C.ar    1  UNL1        0.0296
     10 C          59.6660   87.7005    8.3550 C.ar    1  UNL1        0.0020
     11 C          60.3811   86.4844    8.8646 C.ar    1  UNL1       -0.0041
     12 C          61.5781   86.6366    9.7556 C.ar    1  UNL1       -0.0199
     13 C          62.0600   88.0050   10.1371 C.ar    1  UNL1        0.0254
     14 C          64.5777   84.6962   14.9014 C.3     1  UNL1        0.0630
     15 C          64.1011   86.0289   15.3981 C.ar    1  UNL1        0.0650
     16 C          63.3628   86.1236   16.7003 C.ar    1  UNL1        0.0356
     17 C          62.8861   87.4564   17.1970 C.ar    1  UNL1        0.1033
     18 N          63.1478   88.6943   16.3914 N.ar    1  UNL1       -0.2095
     19 C          63.8862   88.5995   15.0891 C.ar    1  UNL1        0.2378
     20 N          64.3628   87.2668   14.5925 N.ar    1  UNL1       -0.2154
     21 N          64.1479   89.8375   14.2835 N.ar    1  UNL1       -0.2558
     22 C          63.6048   90.1310   12.9164 C.ar    1  UNL1        0.1050
     23 C          64.1199   91.4742   12.4916 C.ar    1  UNL1        0.1197
     24 N          64.9812   92.0109   13.5961 N.ar    1  UNL1       -0.2219
     25 C          64.9986   90.9994   14.7037 C.ar    1  UNL1        0.1851
@<TRIPOS>BOND
     1     7     8    1
     2     8     9   ar
     3     9    10   ar
     4    10    11   ar
     5    11    12   ar
     6    12     6    1
     7     6     5    1
     8     5     4    1
     9     4     2    1
    10     2     1    1
    11     1    14    1
    12    14    15    1
    13    15    16   ar
    14    16    17   ar
    15    17    18   ar
    16    18    19   ar
    17    19    21    1
    18    21    22   ar
    19    22    23   ar
    20    23    24   ar
    21    24    25   ar
    22    19    20   ar
    23    12    13   ar
    24    13     8   ar
    25    20    15   ar
    26    25    21   ar
    27     2     3    1
@<TRIPOS>MOLECULE
*****
 25 27 0 0 0
SMALL
GASTEIGER

@<TRIPOS>ATOM
      1 C          63.5062   89.6815   15.4899 C.3     1  UNL1        0.0749
      2 N          63.6008   88.1940   15.6587 N.3     1  UNL1       -0.2971
      3 H          64.0448   88.0279   16.5619 H       1  UNL1        0.1233
      4 C          64.3473   87.3708   14.6513 C.3     1  UNL1        0.0689
      5 C          64.7794   85.9760   14.9945 C.3     1  UNL1        0.0218
      6 C          63.7524   84.9033   15.2061 C.3     1  UNL1        0.0278
      7 F          64.6890   83.0653   10.4369 F       1  UNL1       -0.2042
      8 C          63.9513   82.9801   11.7403 C.ar    1  UNL1        0.1398
      9 C          62.9443   81.8909   11.9623 C.ar    1  UNL1        0.0296
     10 C          62.2066   81.8057   13.2656 C.ar    1  UNL1        0.0020
     11 C          62.4760   82.8099   14.3469 C.ar    1  UNL1       -0.0041
     12 C          63.4830   83.8991   14.1248 C.ar    1  UNL1       -0.0199
     13 C          64.2207   83.9843   12.8215 C.ar    1  UNL1        0.0254
     14 C          64.5948   90.4258   14.7749 C.3     1  UNL1        0.0630
     15 C          64.3866   90.8845   13.3620 C.ar    1  UNL1        0.0650
     16 C          63.2318   90.3554   12.5642 C.ar    1  UNL1        0.0356
     17 C          63.0236   90.8140   11.1512 C.ar    1  UNL1        0.1033
     18 N          63.9703   91.8017   10.5361 N.ar    1  UNL1       -0.2095
     19 C          65.1251   92.3308   11.3340 C.ar    1  UNL1        0.2378
     20 N          65.3333   91.8722   12.7469 N.ar    1  UNL1       -0.2154
     21 N          66.0717   93.3185   10.7189 N.ar    1  UNL1       -0.2558
     22 C          65.8916   94.8072   10.6820 C.ar    1  UNL1        0.1050
     23 C          67.0733   95.3997    9.9730 C.ar    1  UNL1        0.1197
     24 N          67.9837   94.2772    9.5718 N.ar    1  UNL1       -0.2219
     25 C          67.3648   92.9909   10.0327 C.ar    1  UNL1        0.1851
@<TRIPOS>BOND
     1     7     8    1
     2     8     9   ar
     3     9    10   ar
     4    10    11   ar
     5    11    12   ar
     6    12     6    1
     7     6     5    1
     8     5     4    1
     9     4     2    1
    10     2     1    1
    11     1    14    1
    12    14    15    1
    13    15    16   ar
    14    16    17   ar
    15    17    18   ar
    16    18    19   ar
    17    19    21    1
    18    21    22   ar
    19    22    23   ar
    20    23    24   ar
    21    24    25   ar
    22    19    20   ar
    23    12    13   ar
    24    13     8   ar
    25    20    15   ar
    26    25    21   ar
    27     2     3    1
@<TRIPOS>MOLECULE
*****
 25 27 0 0 0
SMALL
GASTEIGER

@<TRIPOS>ATOM
      1 C          63.5822   89.7298   15.0376 C.3     1  UNL1        0.0749
      2 N          63.6524   88.3216   15.5493 N.3     1  UNL1       -0.2971
      3 H          64.0991   88.3632   16.4653 H       1  UNL1        0.1233
      4 C          64.3785   87.2725   14.7607 C.3     1  UNL1        0.0689
      5 C          64.3867   85.8494   15.2348 C.3     1  UNL1        0.0218
      6 C          64.9990   84.7781   14.3819 C.3     1  UNL1        0.0278
      7 F          61.2215   81.2166   14.5973 F       1  UNL1       -0.2042
      8 C          62.2336   81.9906   13.8056 C.ar    1  UNL1        0.1398
      9 C          62.3689   81.7579   12.3300 C.ar    1  UNL1        0.0296
     10 C          63.3810   82.5318   11.5384 C.ar    1  UNL1        0.0020
     11 C          64.2577   83.5386   12.2223 C.ar    1  UNL1       -0.0041
     12 C          64.1223   83.7713   13.6979 C.ar    1  UNL1       -0.0199
     13 C          63.1103   82.9974   14.4896 C.ar    1  UNL1        0.0254
     14 C          64.3474   90.1201   13.8078 C.3     1  UNL1        0.0630
     15 C          65.1880   91.3624   13.8102 C.ar    1  UNL1        0.0650
     16 C          65.8329   91.8290   15.0815 C.ar    1  UNL1        0.0356
     17 C          66.6735   93.0715   15.0840 C.ar    1  UNL1        0.1033
     18 N          66.8691   93.8472   13.8151 N.ar    1  UNL1       -0.2095
     19 C          66.2240   93.3805   12.5438 C.ar    1  UNL1        0.2378
     20 N          65.3835   92.1381   12.5414 N.ar    1  UNL1       -0.2154
     21 N          66.4196   94.1562   11.2749 N.ar    1  UNL1       -0.2558
     22 C          66.1772   95.6253   11.0934 C.ar    1  UNL1        0.1050
     23 C          66.4997   95.9760    9.6710 C.ar    1  UNL1        0.1197
     24 N          66.9414   94.7237    8.9735 N.ar    1  UNL1       -0.2219
     25 C          66.8919   93.5989    9.9647 C.ar    1  UNL1        0.1851
@<TRIPOS>BOND
     1     7     8    1
     2     8     9   ar
     3     9    10   ar
     4    10    11   ar
     5    11    12   ar
     6    12     6    1
     7     6     5    1
     8     5     4    1
     9     4     2    1
    10     2     1    1
    11     1    14    1
    12    14    15    1
    13    15    16   ar
    14    16    17   ar
    15    17    18   ar
    16    18    19   ar
    17    19    21    1
    18    21    22   ar
    19    22    23   ar
    20    23    24   ar
    21    24    25   ar
    22    19    20   ar
    23    12    13   ar
    24    13     8   ar
    25    20    15   ar
    26    25    21   ar
    27     2     3    1
@<TRIPOS>MOLECULE
*****
 25 27 0 0 0
SMALL
GASTEIGER

@<TRIPOS>ATOM
      1 C          63.4763   89.1357   12.6349 C.3     1  UNL1        0.0749
      2 N          62.1936   88.7939   11.9365 N.3     1  UNL1       -0.2971
      3 H          61.9308   87.8578   12.2448 H       1  UNL1        0.1233
      4 C          62.1341   88.7888   10.4377 C.3     1  UNL1        0.0689
      5 C          62.0870   87.4873    9.6934 C.3     1  UNL1        0.0218
      6 C          61.5896   86.2491   10.3785 C.3     1  UNL1        0.0278
      7 F          64.1426   83.6127   14.0570 F       1  UNL1       -0.2042
      8 C          63.8311   83.8513   12.6093 C.ar    1  UNL1        0.1398
      9 C          64.4845   83.0103   11.5530 C.ar    1  UNL1        0.0296
     10 C          64.1730   83.2489   10.1053 C.ar    1  UNL1        0.0020
     11 C          63.2081   84.3285    9.7137 C.ar    1  UNL1       -0.0041
     12 C          62.5546   85.1694   10.7700 C.ar    1  UNL1       -0.0199
     13 C          62.8661   84.9308   12.2178 C.ar    1  UNL1        0.0254
     14 C          63.5528   90.3514   13.5103 C.3     1  UNL1        0.0630
     15 C          64.7831   91.2094   13.4964 C.ar    1  UNL1        0.0650
     16 C          65.7613   91.1362   14.6312 C.ar    1  UNL1        0.0356
     17 C          66.9917   91.9942   14.6173 C.ar    1  UNL1        0.1033
     18 N          67.2437   92.9254   13.4687 N.ar    1  UNL1       -0.2095
     19 C          66.2654   92.9985   12.3339 C.ar    1  UNL1        0.2378
     20 N          65.0352   92.1405   12.3478 N.ar    1  UNL1       -0.2154
     21 N          66.5175   93.9297   11.1853 N.ar    1  UNL1       -0.2558
     22 C          67.1345   93.5595    9.8691 C.ar    1  UNL1        0.1050
     23 C          67.1952   94.7956    9.0215 C.ar    1  UNL1        0.1197
     24 N          66.6156   95.9298    9.8138 N.ar    1  UNL1       -0.2219
     25 C          66.1968   95.3947   11.1511 C.ar    1  UNL1        0.1851
@<TRIPOS>BOND
     1     7     8    1
     2     8     9   ar
     3     9    10   ar
     4    10    11   ar
     5    11    12   ar
     6    12     6    1
     7     6     5    1
     8     5     4    1
     9     4     2    1
    10     2     1    1
    11     1    14    1
    12    14    15    1
    13    15    16   ar
    14    16    17   ar
    15    17    18   ar
    16    18    19   ar
    17    19    21    1
    18    21    22   ar
    19    22    23   ar
    20    23    24   ar
    21    24    25   ar
    22    19    20   ar
    23    12    13   ar
    24    13     8   ar
    25    20    15   ar
    26    25    21   ar
    27     2     3    1
@<TRIPOS>MOLECULE
*****
 25 27 0 0 0
SMALL
GASTEIGER

@<TRIPOS>ATOM
      1 C          64.3858   88.2163   14.6913 C.3     1  UNL1        0.0749
      2 N          63.6314   87.4142   15.7098 N.3     1  UNL1       -0.2971
      3 H          63.8115   87.8453   16.6165 H       1  UNL1        0.1233
      4 C          63.9082   85.9481   15.8647 C.3     1  UNL1        0.0689
      5 C          64.4835   85.1684   14.7197 C.3     1  UNL1        0.0218
      6 C          63.6322   84.8496   13.5265 C.3     1  UNL1        0.0278
      7 F          63.1057   80.8361   10.2685 F       1  UNL1       -0.2042
      8 C          62.9424   81.4286   11.6368 C.ar    1  UNL1        0.1398
      9 C          62.3524   80.6069   12.7443 C.ar    1  UNL1        0.0296
     10 C          62.1891   81.1995   14.1126 C.ar    1  UNL1        0.0020
     11 C          62.6157   82.6137   14.3734 C.ar    1  UNL1       -0.0041
     12 C          63.2056   83.4353   13.2658 C.ar    1  UNL1       -0.0199
     13 C          63.3690   82.8428   11.8975 C.ar    1  UNL1        0.0254
     14 C          63.8950   89.5773   14.2950 C.3     1  UNL1        0.0630
     15 C          63.5359   89.8583   12.8660 C.ar    1  UNL1        0.0650
     16 C          63.9734   91.1399   12.2209 C.ar    1  UNL1        0.0356
     17 C          63.6143   91.4209   10.7919 C.ar    1  UNL1        0.1033
     18 N          62.8178   90.4204   10.0080 N.ar    1  UNL1       -0.2095
     19 C          62.3804   89.1388   10.6531 C.ar    1  UNL1        0.2378
     20 N          62.7394   88.8578   12.0821 N.ar    1  UNL1       -0.2154
     21 N          61.5839   88.1383    9.8692 N.ar    1  UNL1       -0.2558
     22 C          60.1605   88.2984    9.4240 C.ar    1  UNL1        0.1050
     23 C          59.7678   87.0611    8.6725 C.ar    1  UNL1        0.1197
     24 N          60.9485   86.1361    8.6533 N.ar    1  UNL1       -0.2219
     25 C          62.0709   86.8018    9.3930 C.ar    1  UNL1        0.1851
@<TRIPOS>BOND
     1     7     8    1
     2     8     9   ar
     3     9    10   ar
     4    10    11   ar
     5    11    12   ar
     6    12     6    1
     7     6     5    1
     8     5     4    1
     9     4     2    1
    10     2     1    1
    11     1    14    1
    12    14    15    1
    13    15    16   ar
    14    16    17   ar
    15    17    18   ar
    16    18    19   ar
    17    19    21    1
    18    21    22   ar
    19    22    23   ar
    20    23    24   ar
    21    24    25   ar
    22    19    20   ar
    23    12    13   ar
    24    13     8   ar
    25    20    15   ar
    26    25    21   ar
    27     2     3    1
@<TRIPOS>MOLECULE
*****
 25 27 0 0 0
SMALL
GASTEIGER

@<TRIPOS>ATOM
      1 C          62.1284   90.2701   10.0739 C.3     1  UNL1        0.0749
      2 N          62.3771   88.8251   10.3905 N.3     1  UNL1       -0.2971
      3 H          62.8230   88.4163    9.5692 H       1  UNL1        0.1233
      4 C          61.2304   87.9284   10.7521 C.3     1  UNL1        0.0689
      5 C          61.0331   86.6322   10.0233 C.3     1  UNL1        0.0218
      6 C          62.2219   85.8498    9.5494 C.3     1  UNL1        0.0278
      7 F          63.1949   84.0870   14.3396 F       1  UNL1       -0.2042
      8 C          63.3583   83.9675   12.8533 C.ar    1  UNL1        0.1398
      9 C          64.1715   82.8472   12.2758 C.ar    1  UNL1        0.0296
     10 C          64.3348   82.7277   10.7895 C.ar    1  UNL1        0.0020
     11 C          63.6850   83.7285    9.8807 C.ar    1  UNL1       -0.0041
     12 C          62.8718   84.8489   10.4582 C.ar    1  UNL1       -0.0199
     13 C          62.7084   84.9684   11.9445 C.ar    1  UNL1        0.0254
     14 C          63.1624   91.3016   10.4159 C.3     1  UNL1        0.0630
     15 C          63.9278   91.1988   11.7018 C.ar    1  UNL1        0.0650
     16 C          65.0858   92.1163   11.9607 C.ar    1  UNL1        0.0356
     17 C          65.8512   92.0135   13.2467 C.ar    1  UNL1        0.1033
     18 N          65.4585   90.9932   14.2737 N.ar    1  UNL1       -0.2095
     19 C          64.3004   90.0756   14.0147 C.ar    1  UNL1        0.2378
     20 N          63.5351   90.1784   12.7288 N.ar    1  UNL1       -0.2154
     21 N          63.9078   89.0552   15.0417 N.ar    1  UNL1       -0.2558
     22 C          63.2190   89.3353   16.3444 C.ar    1  UNL1        0.1050
     23 C          63.0205   88.0288   17.0541 C.ar    1  UNL1        0.1197
     24 N          63.5866   86.9412   16.1900 N.ar    1  UNL1       -0.2219
     25 C          64.1350   87.5755   14.9462 C.ar    1  UNL1        0.1851
@<TRIPOS>BOND
     1     7     8    1
     2     8     9   ar
     3     9    10   ar
     4    10    11   ar
     5    11    12   ar
     6    12     6    1
     7     6     5    1
     8     5     4    1
     9     4     2    1
    10     2     1    1
    11     1    14    1
    12    14    15    1
    13    15    16   ar
    14    16    17   ar
    15    17    18   ar
    16    18    19   ar
    17    19    21    1
    18    21    22   ar
    19    22    23   ar
    20    23    24   ar
    21    24    25   ar
    22    19    20   ar
    23    12    13   ar
    24    13     8   ar
    25    20    15   ar
    26    25    21   ar
    27     2     3    1
@<TRIPOS>MOLECULE
*****
 25 27 0 0 0
SMALL
GASTEIGER

@<TRIPOS>ATOM
      1 C          63.9862   83.7339   15.1463 C.3     1  UNL1        0.0749
      2 N          64.8026   84.9653   15.4056 N.3     1  UNL1       -0.2971
      3 H          65.3228   84.7977   16.2668 H       1  UNL1        0.1233
      4 C          64.1258   86.2949   15.5604 C.3     1  UNL1        0.0689
      5 C          64.4107   87.3994   14.5862 C.3     1  UNL1        0.0218
      6 C          64.1655   88.8265   14.9777 C.3     1  UNL1        0.0278
      7 F          62.9309   91.1649   10.5047 F       1  UNL1       -0.2042
      8 C          63.7707   91.0954   11.7456 C.ar    1  UNL1        0.1398
      9 C          64.8331   92.1255   11.9909 C.ar    1  UNL1        0.0296
     10 C          65.6729   92.0560   13.2318 C.ar    1  UNL1        0.0020
     11 C          65.4504   90.9563   14.2274 C.ar    1  UNL1       -0.0041
     12 C          64.3881   89.9262   13.9821 C.ar    1  UNL1       -0.0199
     13 C          63.5482   89.9957   12.7412 C.ar    1  UNL1        0.0254
     14 C          62.7825   83.8062   14.2542 C.3     1  UNL1        0.0630
     15 C          62.9534   84.0248   12.7801 C.ar    1  UNL1        0.0650
     16 C          63.8561   83.1258   11.9883 C.ar    1  UNL1        0.0356
     17 C          64.0271   83.3444   10.5142 C.ar    1  UNL1        0.1033
     18 N          63.2954   84.4619    9.8318 N.ar    1  UNL1       -0.2095
     19 C          62.3927   85.3610   10.6237 C.ar    1  UNL1        0.2378
     20 N          62.2217   85.1424   12.0977 N.ar    1  UNL1       -0.2154
     21 N          61.6609   86.4786    9.9413 N.ar    1  UNL1       -0.2558
     22 C          60.5637   86.3261    8.9300 C.ar    1  UNL1        0.1050
     23 C          60.1226   87.6981    8.5142 C.ar    1  UNL1        0.1197
     24 N          60.9472   88.6986    9.2685 N.ar    1  UNL1       -0.2219
     25 C          61.8980   87.9449   10.1506 C.ar    1  UNL1        0.1851
@<TRIPOS>BOND
     1     7     8    1
     2     8     9   ar
     3     9    10   ar
     4    10    11   ar
     5    11    12   ar
     6    12     6    1
     7     6     5    1
     8     5     4    1
     9     4     2    1
    10     2     1    1
    11     1    14    1
    12    14    15    1
    13    15    16   ar
    14    16    17   ar
    15    17    18   ar
    16    18    19   ar
    17    19    21    1
    18    21    22   ar
    19    22    23   ar
    20    23    24   ar
    21    24    25   ar
    22    19    20   ar
    23    12    13   ar
    24    13     8   ar
    25    20    15   ar
    26    25    21   ar
    27     2     3    1
