@<TRIPOS>MOLECULE
*****
 44 48 0 0 0
SMALL
GASTEIGER

@<TRIPOS>ATOM
      1 N          62.4904   87.9933   11.2780 N.am    1  UNL1       -0.2741
      2 C          62.4854   86.6429   11.9312 C.2     1  UNL1        0.2303
      3 O          62.2220   86.5227   13.4030 O.2     1  UNL1       -0.2745
      4 C          60.8955   89.4238   12.7477 C.3     1  UNL1        0.0297
      5 C          62.2319   89.2233   12.0967 C.3     1  UNL1        0.1325
      6 C          63.3099   90.2529   12.2643 C.ar    1  UNL1        0.1462
      7 N          63.5847   91.2368   11.1659 N.ar    1  UNL1       -0.2114
      8 C          64.6626   92.2663   11.3336 C.ar    1  UNL1        0.1682
      9 N          64.9374   93.2502   10.2352 N.ar    1  UNL1       -0.2249
     10 C          66.0154   94.2797   10.4028 C.ar    1  UNL1        0.1006
     11 C          66.8185   94.3253   11.6689 C.ar    1  UNL1        0.0209
     12 C          66.5437   93.3414   12.7673 C.ar    1  UNL1        0.0094
     13 C          65.4658   92.3120   12.5996 C.ar    1  UNL1        0.0923
     14 C          65.1910   91.3280   13.6980 C.ar    1  UNL1        0.2685
     15 O          65.9942   91.3737   14.9640 O.2     1  UNL1       -0.2665
     16 N          64.1131   90.2985   13.5303 N.ar    1  UNL1       -0.2612
     17 C          63.8382   89.3146   14.6288 C.ar    1  UNL1        0.0680
     18 C          64.4194   87.9334   14.5612 C.ar    1  UNL1        0.0185
     19 C          64.1446   86.9495   15.6595 C.ar    1  UNL1        0.0129
     20 C          63.2887   87.3468   16.8254 C.ar    1  UNL1        0.0578
     21 CL         63.0138   86.3628   17.9238 Cl      1  UNL1       -0.0822
     22 C          62.7075   88.7279   16.8930 C.ar    1  UNL1        0.0129
     23 C          62.9823   89.7119   15.7947 C.ar    1  UNL1        0.0185
     24 C          62.7538   88.1136    9.8063 C.3     1  UNL1        0.0938
     25 C          62.2390   87.0660    8.8641 C.3     1  UNL1        0.0234
     26 C          60.7776   87.0101    8.5308 C.3     1  UNL1        0.0271
     27 C          60.2628   85.9626    7.5886 C.3     1  UNL1        0.1509
     28 S          61.2094   84.9710    6.9798 S.O2    1  UNL1       -0.0100
     29 O          61.7086   83.8212    6.1559 O.2     1  UNL1       -0.1730
     30 O          59.9213   84.5158    6.3603 O.2     1  UNL1       -0.1730
     31 C          62.6707   85.0269    7.3132 C.3     1  UNL1        0.1509
     32 C          63.1856   86.0744    8.2554 C.3     1  UNL1        0.0271
     33 C          62.7439   85.4129   11.1126 C.3     1  UNL1        0.1116
     34 C          62.7353   84.0623   11.7650 C.ar    1  UNL1       -0.0109
     35 C          62.6235   83.9506   13.2566 C.ar    1  UNL1       -0.0037
     36 C          62.6149   82.5998   13.9090 C.ar    1  UNL1        0.0058
     37 C          62.7180   81.3609   13.0698 C.ar    1  UNL1        0.0988
     38 C          62.8298   81.4726   11.5781 C.ar    1  UNL1        0.1437
     39 F          62.9329   80.2337   10.7389 F       1  UNL1       -0.2042
     40 C          62.8384   82.8232   10.9257 C.ar    1  UNL1        0.0258
     41 C          62.7094   80.0103   13.7222 C.3     1  UNL1        0.4207
     42 F          62.7008   78.6596   14.3746 F       1  UNL1       -0.1658
     43 F          61.2861   79.8117   13.2922 F       1  UNL1       -0.1658
     44 F          64.1326   80.2089   14.1521 F       1  UNL1       -0.1658
@<TRIPOS>BOND
     1     5     4    1
     2     5     6    1
     3     6     7   ar
     4     7     8   ar
     5     8     9   ar
     6     9    10   ar
     7    10    11   ar
     8    11    12   ar
     9    12    13   ar
    10    13    14   ar
    11    14    15    2
    12    14    16   ar
    13    16    17    1
    14    17    18   ar
    15    18    19   ar
    16    19    20   ar
    17    20    21    1
    18    20    22   ar
    19    22    23   ar
    20     5     1    1
    21     1    24    1
    22    24    25    1
    23    25    26    1
    24    26    27    1
    25    27    28    1
    26    28    29    2
    27    28    30    2
    28    28    31    1
    29    31    32    1
    30     1     2   am
    31     2     3    2
    32     2    33    1
    33    33    34    1
    34    34    35   ar
    35    35    36   ar
    36    36    37   ar
    37    37    41    1
    38    41    42    1
    39    41    43    1
    40    41    44    1
    41    37    38   ar
    42    38    39    1
    43    38    40   ar
    44    16     6   ar
    45    23    17   ar
    46    32    25    1
    47    40    34   ar
    48    13     8   ar
@<TRIPOS>MOLECULE
*****
 44 48 0 0 0
SMALL
GASTEIGER

@<TRIPOS>ATOM
      1 N          62.4813   88.0415   11.2537 N.am    1  UNL1       -0.2741
      2 C          62.4850   86.6898   11.9041 C.2     1  UNL1        0.2303
      3 O          62.2416   86.5664   13.3790 O.2     1  UNL1       -0.2745
      4 C          60.9016   89.4768   12.7350 C.3     1  UNL1        0.0297
      5 C          62.2342   89.2699   12.0784 C.3     1  UNL1        0.1325
      6 C          63.3198   90.2913   12.2465 C.ar    1  UNL1        0.1462
      7 N          63.5957   91.2796   11.1523 N.ar    1  UNL1       -0.2114
      8 C          64.6813   92.3010   11.3204 C.ar    1  UNL1        0.1682
      9 N          64.9571   93.2893   10.2263 N.ar    1  UNL1       -0.2249
     10 C          66.0427   94.3107   10.3944 C.ar    1  UNL1        0.1006
     11 C          66.8524   94.3438   11.6566 C.ar    1  UNL1        0.0209
     12 C          66.5766   93.3555   12.7507 C.ar    1  UNL1        0.0094
     13 C          65.4910   92.3341   12.5826 C.ar    1  UNL1        0.0923
     14 C          65.2152   91.3457   13.6768 C.ar    1  UNL1        0.2685
     15 O          66.0250   91.3788   14.9390 O.2     1  UNL1       -0.2665
     16 N          64.1296   90.3244   13.5087 N.ar    1  UNL1       -0.2612
     17 C          63.8538   89.3360   14.6028 C.ar    1  UNL1        0.0680
     18 C          63.0043   89.7315   15.7742 C.ar    1  UNL1        0.0185
     19 C          62.7285   88.7432   16.8683 C.ar    1  UNL1        0.0129
     20 C          63.3020   87.3594   16.7911 C.ar    1  UNL1        0.0578
     21 CL         63.0262   86.3711   17.8852 Cl      1  UNL1       -0.0822
     22 C          64.1515   86.9639   15.6197 C.ar    1  UNL1        0.0129
     23 C          64.4273   87.9522   14.5256 C.ar    1  UNL1        0.0185
     24 C          62.7248   88.1649    9.7788 C.3     1  UNL1        0.0938
     25 C          62.2407   87.0940    8.8466 C.3     1  UNL1        0.0234
     26 C          63.2129   86.1127    8.2621 C.3     1  UNL1        0.0271
     27 C          62.7289   85.0419    7.3300 C.3     1  UNL1        0.1509
     28 S          61.2725   84.9524    6.9822 S.O2    1  UNL1       -0.0100
     29 O          60.0003   84.4630    6.3559 O.2     1  UNL1       -0.1730
     30 O          61.8030   83.8011    6.1802 O.2     1  UNL1       -0.1730
     31 C          60.3002   85.9337    7.5667 C.3     1  UNL1        0.1509
     32 C          60.7843   87.0045    8.4989 C.3     1  UNL1        0.0271
     33 C          62.7321   85.4614   11.0794 C.3     1  UNL1        0.1116
     34 C          62.7241   84.1088   11.7276 C.ar    1  UNL1       -0.0109
     35 C          62.9948   82.8824   10.9074 C.ar    1  UNL1       -0.0037
     36 C          62.9868   81.5297   11.5556 C.ar    1  UNL1        0.0058
     37 C          62.7081   81.4034   13.0241 C.ar    1  UNL1        0.0988
     38 C          62.4374   82.6298   13.8443 C.ar    1  UNL1        0.1437
     39 F          62.1587   82.5035   15.3127 F       1  UNL1       -0.2042
     40 C          62.4454   83.9824   13.1961 C.ar    1  UNL1        0.0258
     41 C          62.7001   80.0507   13.6723 C.3     1  UNL1        0.4207
     42 F          62.6922   78.6980   14.3205 F       1  UNL1       -0.1658
     43 F          61.2184   79.9572   13.4587 F       1  UNL1       -0.1658
     44 F          64.1819   80.1443   13.8858 F       1  UNL1       -0.1658
@<TRIPOS>BOND
     1     5     4    1
     2     5     6    1
     3     6     7   ar
     4     7     8   ar
     5     8     9   ar
     6     9    10   ar
     7    10    11   ar
     8    11    12   ar
     9    12    13   ar
    10    13    14   ar
    11    14    15    2
    12    14    16   ar
    13    16    17    1
    14    17    18   ar
    15    18    19   ar
    16    19    20   ar
    17    20    21    1
    18    20    22   ar
    19    22    23   ar
    20     5     1    1
    21     1    24    1
    22    24    25    1
    23    25    26    1
    24    26    27    1
    25    27    28    1
    26    28    29    2
    27    28    30    2
    28    28    31    1
    29    31    32    1
    30     1     2   am
    31     2     3    2
    32     2    33    1
    33    33    34    1
    34    34    35   ar
    35    35    36   ar
    36    36    37   ar
    37    37    41    1
    38    41    42    1
    39    41    43    1
    40    41    44    1
    41    37    38   ar
    42    38    39    1
    43    38    40   ar
    44    16     6   ar
    45    23    17   ar
    46    32    25    1
    47    40    34   ar
    48    13     8   ar
@<TRIPOS>MOLECULE
*****
 44 48 0 0 0
SMALL
GASTEIGER

@<TRIPOS>ATOM
      1 N          63.6925   90.3399   13.0390 N.am    1  UNL1       -0.2741
      2 C          64.1467   91.3595   12.0369 C.2     1  UNL1        0.2303
      3 O          63.5041   91.4182   10.6828 O.2     1  UNL1       -0.2745
      4 C          61.2324   89.8943   12.3323 C.3     1  UNL1        0.0297
      5 C          62.5957   89.3791   12.6870 C.3     1  UNL1        0.1325
      6 C          62.8623   87.9029   12.6897 C.ar    1  UNL1        0.1462
      7 N          63.6412   87.2835   13.8120 N.ar    1  UNL1       -0.2114
      8 C          63.9078   85.8073   13.8147 C.ar    1  UNL1        0.1682
      9 N          64.6867   85.1879   14.9370 N.ar    1  UNL1       -0.2249
     10 C          64.9533   83.7118   14.9397 C.ar    1  UNL1        0.1006
     11 C          64.4409   82.8551   13.8200 C.ar    1  UNL1        0.0209
     12 C          63.6620   83.4745   12.6977 C.ar    1  UNL1        0.0094
     13 C          63.3955   84.9506   12.6951 C.ar    1  UNL1        0.0923
     14 C          62.6165   85.5701   11.5727 C.ar    1  UNL1        0.2685
     15 O          62.1042   84.7134   10.4531 O.2     1  UNL1       -0.2665
     16 N          62.3500   87.0462   11.5701 N.ar    1  UNL1       -0.2612
     17 C          61.5710   87.6657   10.4477 C.ar    1  UNL1        0.0680
     18 C          60.2324   87.1068   10.0659 C.ar    1  UNL1        0.0185
     19 C          59.4535   87.7262    8.9437 C.ar    1  UNL1        0.0129
     20 C          60.0131   88.9045    8.2032 C.ar    1  UNL1        0.0578
     21 CL         59.2342   89.5240    7.0809 Cl      1  UNL1       -0.0822
     22 C          61.3517   89.4634    8.5850 C.ar    1  UNL1        0.0129
     23 C          62.1307   88.8440    9.7073 C.ar    1  UNL1        0.0185
     24 C          64.3351   90.2812   14.3931 C.3     1  UNL1        0.0938
     25 C          65.5210   91.1472   14.6987 C.3     1  UNL1        0.0234
     26 C          65.3938   92.2739   15.6807 C.3     1  UNL1        0.0271
     27 C          66.5798   93.1400   15.9862 C.3     1  UNL1        0.1509
     28 S          67.8930   92.8794   15.3098 S.O2    1  UNL1       -0.0100
     29 O          69.3361   93.0280   14.9285 O.2     1  UNL1       -0.1730
     30 O          68.2669   94.0577   16.1594 O.2     1  UNL1       -0.1730
     31 C          68.0202   91.7527   14.3279 C.3     1  UNL1        0.1509
     32 C          66.8342   90.8866   14.0223 C.3     1  UNL1        0.0271
     33 C          65.2434   92.3203   12.3889 C.3     1  UNL1        0.1116
     34 C          65.8118   93.2274   11.3381 C.ar    1  UNL1       -0.0109
     35 C          65.3872   94.6648   11.2787 C.ar    1  UNL1       -0.0037
     36 C          65.9555   95.5719   10.2279 C.ar    1  UNL1        0.0058
     37 C          66.9485   95.0416    9.2366 C.ar    1  UNL1        0.0988
     38 C          67.3731   93.6042    9.2960 C.ar    1  UNL1        0.1437
     39 F          68.3660   93.0739    8.3046 F       1  UNL1       -0.2042
     40 C          66.8048   92.6971   10.3467 C.ar    1  UNL1        0.0258
     41 C          67.5168   95.9487    8.1858 C.3     1  UNL1        0.4207
     42 F          68.0852   96.8558    7.1350 F       1  UNL1       -0.1658
     43 F          68.0474   96.8559    9.2560 F       1  UNL1       -0.1658
     44 F          66.9862   95.0415    7.1156 F       1  UNL1       -0.1658
@<TRIPOS>BOND
     1     5     4    1
     2     5     6    1
     3     6     7   ar
     4     7     8   ar
     5     8     9   ar
     6     9    10   ar
     7    10    11   ar
     8    11    12   ar
     9    12    13   ar
    10    13    14   ar
    11    14    15    2
    12    14    16   ar
    13    16    17    1
    14    17    18   ar
    15    18    19   ar
    16    19    20   ar
    17    20    21    1
    18    20    22   ar
    19    22    23   ar
    20     5     1    1
    21     1    24    1
    22    24    25    1
    23    25    26    1
    24    26    27    1
    25    27    28    1
    26    28    29    2
    27    28    30    2
    28    28    31    1
    29    31    32    1
    30     1     2   am
    31     2     3    2
    32     2    33    1
    33    33    34    1
    34    34    35   ar
    35    35    36   ar
    36    36    37   ar
    37    37    41    1
    38    41    42    1
    39    41    43    1
    40    41    44    1
    41    37    38   ar
    42    38    39    1
    43    38    40   ar
    44    16     6   ar
    45    23    17   ar
    46    32    25    1
    47    40    34   ar
    48    13     8   ar
@<TRIPOS>MOLECULE
*****
 44 48 0 0 0
SMALL
GASTEIGER

@<TRIPOS>ATOM
      1 N          62.6413   88.0677   11.4618 N.am    1  UNL1       -0.2741
      2 C          62.8631   86.7467   12.1371 C.2     1  UNL1        0.2303
      3 O          62.8039   86.6497   13.6327 O.2     1  UNL1       -0.2745
      4 C          61.0155   89.4742   12.9206 C.3     1  UNL1        0.0297
      5 C          62.3605   89.2916   12.2822 C.3     1  UNL1        0.1325
      6 C          63.4247   90.3330   12.4642 C.ar    1  UNL1        0.1462
      7 N          63.7310   91.2943   11.3543 N.ar    1  UNL1       -0.2114
      8 C          64.7952   92.3357   11.5363 C.ar    1  UNL1        0.1682
      9 N          65.1015   93.2970   10.4263 N.ar    1  UNL1       -0.2249
     10 C          66.1657   94.3383   10.6084 C.ar    1  UNL1        0.1006
     11 C          66.9235   94.4183   11.9004 C.ar    1  UNL1        0.0209
     12 C          66.6172   93.4570   13.0104 C.ar    1  UNL1        0.0094
     13 C          65.5530   92.4157   12.8283 C.ar    1  UNL1        0.0923
     14 C          65.2467   91.4544   13.9383 C.ar    1  UNL1        0.2685
     15 O          66.0045   91.5344   15.2303 O.2     1  UNL1       -0.2665
     16 N          64.1825   90.4131   13.7563 N.ar    1  UNL1       -0.2612
     17 C          63.8761   89.4517   14.8663 C.ar    1  UNL1        0.0680
     18 C          62.9983   89.8770   16.0058 C.ar    1  UNL1        0.0185
     19 C          62.6919   88.9157   17.1157 C.ar    1  UNL1        0.0129
     20 C          63.2633   87.5292   17.0862 C.ar    1  UNL1        0.0578
     21 CL         62.9570   86.5678   18.1962 Cl      1  UNL1       -0.0822
     22 C          64.1412   87.1039   15.9466 C.ar    1  UNL1        0.0129
     23 C          64.4476   88.0652   14.8367 C.ar    1  UNL1        0.0185
     24 C          62.7005   88.1647    9.9661 C.3     1  UNL1        0.0938
     25 C          61.4507   87.9976    9.1537 C.3     1  UNL1        0.0234
     26 C          60.9431   86.6232    8.8325 C.3     1  UNL1        0.0271
     27 C          59.6933   86.4561    8.0200 C.3     1  UNL1        0.1509
     28 S          58.9512   87.6634    7.5287 S.O2    1  UNL1       -0.0100
     29 O          57.9067   88.4936    6.8432 O.2     1  UNL1       -0.1730
     30 O          58.0808   86.5772    6.9695 O.2     1  UNL1       -0.1730
     31 C          59.4588   89.0379    7.8499 C.3     1  UNL1        0.1509
     32 C          60.7086   89.2050    8.6623 C.3     1  UNL1        0.0271
     33 C          63.1439   85.5228   11.3166 C.3     1  UNL1        0.1116
     34 C          62.9736   84.1601   11.9199 C.ar    1  UNL1       -0.0109
     35 C          62.7103   84.0182   13.3898 C.ar    1  UNL1       -0.0037
     36 C          62.5400   82.6554   13.9931 C.ar    1  UNL1        0.0058
     37 C          62.6330   81.4346   13.1265 C.ar    1  UNL1        0.0988
     38 C          62.8963   81.5765   11.6567 C.ar    1  UNL1        0.1437
     39 F          62.9894   80.3558   10.7901 F       1  UNL1       -0.2042
     40 C          63.0666   82.9392   11.0534 C.ar    1  UNL1        0.0258
     41 C          62.4627   80.0720   13.7298 C.3     1  UNL1        0.4207
     42 F          62.2923   78.7092   14.3332 F       1  UNL1       -0.1658
     43 F          63.9459   79.9761   13.9321 F       1  UNL1       -0.1658
     44 F          60.9795   80.1678   13.5276 F       1  UNL1       -0.1658
@<TRIPOS>BOND
     1     5     4    1
     2     5     6    1
     3     6     7   ar
     4     7     8   ar
     5     8     9   ar
     6     9    10   ar
     7    10    11   ar
     8    11    12   ar
     9    12    13   ar
    10    13    14   ar
    11    14    15    2
    12    14    16   ar
    13    16    17    1
    14    17    18   ar
    15    18    19   ar
    16    19    20   ar
    17    20    21    1
    18    20    22   ar
    19    22    23   ar
    20     5     1    1
    21     1    24    1
    22    24    25    1
    23    25    26    1
    24    26    27    1
    25    27    28    1
    26    28    29    2
    27    28    30    2
    28    28    31    1
    29    31    32    1
    30     1     2   am
    31     2     3    2
    32     2    33    1
    33    33    34    1
    34    34    35   ar
    35    35    36   ar
    36    36    37   ar
    37    37    41    1
    38    41    42    1
    39    41    43    1
    40    41    44    1
    41    37    38   ar
    42    38    39    1
    43    38    40   ar
    44    16     6   ar
    45    23    17   ar
    46    32    25    1
    47    40    34   ar
    48    13     8   ar
@<TRIPOS>MOLECULE
*****
 44 48 0 0 0
SMALL
GASTEIGER

@<TRIPOS>ATOM
      1 N          61.6272   88.9657   10.5917 N.am    1  UNL1       -0.2741
      2 C          60.3220   89.2980    9.9313 C.2     1  UNL1        0.2303
      3 O          59.3807   90.2707   10.5775 O.2     1  UNL1       -0.2745
      4 C          61.1561   89.3492   13.1177 C.3     1  UNL1        0.0297
      5 C          61.9910   89.6062   11.8984 C.3     1  UNL1        0.1325
      6 C          63.1898   90.5036   11.9857 C.ar    1  UNL1        0.1462
      7 N          63.4622   91.4993   10.8975 N.ar    1  UNL1       -0.2114
      8 C          64.6610   92.3968   10.9848 C.ar    1  UNL1        0.1682
      9 N          64.9333   93.3925    9.8965 N.ar    1  UNL1       -0.2249
     10 C          66.1320   94.2898    9.9839 C.ar    1  UNL1        0.1006
     11 C          67.0584   94.1915   11.1595 C.ar    1  UNL1        0.0209
     12 C          66.7861   93.1958   12.2478 C.ar    1  UNL1        0.0094
     13 C          65.5874   92.2985   12.1604 C.ar    1  UNL1        0.0923
     14 C          65.3150   91.3027   13.2487 C.ar    1  UNL1        0.2685
     15 O          66.2413   91.2044   14.4244 O.2     1  UNL1       -0.2665
     16 N          64.1162   90.4053   13.1614 N.ar    1  UNL1       -0.2612
     17 C          63.8438   89.4095   14.2497 C.ar    1  UNL1        0.0680
     18 C          64.2334   87.9727   14.0662 C.ar    1  UNL1        0.0185
     19 C          63.9611   86.9769   15.1545 C.ar    1  UNL1        0.0129
     20 C          63.2991   87.4181   16.4261 C.ar    1  UNL1        0.0578
     21 CL         63.0267   86.4223   17.5144 Cl      1  UNL1       -0.0822
     22 C          62.9095   88.8549   16.6096 C.ar    1  UNL1        0.0129
     23 C          63.1818   89.8507   15.5213 C.ar    1  UNL1        0.0185
     24 C          62.5686   87.9930    9.9454 C.3     1  UNL1        0.0938
     25 C          62.6525   86.5828   10.4495 C.3     1  UNL1        0.0234
     26 C          63.0200   85.4716    9.5114 C.3     1  UNL1        0.0271
     27 C          63.1040   84.0613   10.0155 C.3     1  UNL1        0.1509
     28 S          62.8205   83.7623   11.4578 S.O2    1  UNL1       -0.0100
     29 O          62.6433   82.9834   12.7274 O.2     1  UNL1       -0.1730
     30 O          63.1265   82.3805   10.9606 O.2     1  UNL1       -0.1730
     31 C          62.4530   84.8735   12.3959 C.3     1  UNL1        0.1509
     32 C          62.3691   86.2837   11.8918 C.3     1  UNL1        0.0271
     33 C          59.9582   88.6576    8.6245 C.3     1  UNL1        0.1116
     34 C          59.7666   89.5048    7.4017 C.ar    1  UNL1       -0.0109
     35 C          60.9539   90.1193    6.7214 C.ar    1  UNL1       -0.0037
     36 C          60.7623   90.9666    5.4985 C.ar    1  UNL1        0.0058
     37 C          59.3834   91.1994    4.9559 C.ar    1  UNL1        0.0988
     38 C          58.1961   90.5850    5.6362 C.ar    1  UNL1        0.1437
     39 F          56.8172   90.8178    5.0937 F       1  UNL1       -0.2042
     40 C          58.3877   89.7377    6.8591 C.ar    1  UNL1        0.0258
     41 C          59.1918   92.0466    3.7331 C.3     1  UNL1        0.4207
     42 F          59.0002   92.8939    2.5102 F       1  UNL1       -0.1658
     43 F          57.7048   91.9754    3.9167 F       1  UNL1       -0.1658
     44 F          60.6788   92.1179    3.5495 F       1  UNL1       -0.1658
@<TRIPOS>BOND
     1     5     4    1
     2     5     6    1
     3     6     7   ar
     4     7     8   ar
     5     8     9   ar
     6     9    10   ar
     7    10    11   ar
     8    11    12   ar
     9    12    13   ar
    10    13    14   ar
    11    14    15    2
    12    14    16   ar
    13    16    17    1
    14    17    18   ar
    15    18    19   ar
    16    19    20   ar
    17    20    21    1
    18    20    22   ar
    19    22    23   ar
    20     5     1    1
    21     1    24    1
    22    24    25    1
    23    25    26    1
    24    26    27    1
    25    27    28    1
    26    28    29    2
    27    28    30    2
    28    28    31    1
    29    31    32    1
    30     1     2   am
    31     2     3    2
    32     2    33    1
    33    33    34    1
    34    34    35   ar
    35    35    36   ar
    36    36    37   ar
    37    37    41    1
    38    41    42    1
    39    41    43    1
    40    41    44    1
    41    37    38   ar
    42    38    39    1
    43    38    40   ar
    44    16     6   ar
    45    23    17   ar
    46    32    25    1
    47    40    34   ar
    48    13     8   ar
@<TRIPOS>MOLECULE
*****
 44 48 0 0 0
SMALL
GASTEIGER

@<TRIPOS>ATOM
      1 N          61.6326   89.0476   10.4748 N.am    1  UNL1       -0.2741
      2 C          60.3432   89.4049    9.7965 C.2     1  UNL1        0.2303
      3 O          59.4169   90.4034   10.4248 O.2     1  UNL1       -0.2745
      4 C          61.1623   89.4287   13.0014 C.3     1  UNL1        0.0297
      5 C          61.9954   89.6888   11.7814 C.3     1  UNL1        0.1325
      6 C          63.1914   90.5900   11.8680 C.ar    1  UNL1        0.1462
      7 N          63.4612   91.5849   10.7784 N.ar    1  UNL1       -0.2114
      8 C          64.6572   92.4862   10.8650 C.ar    1  UNL1        0.1682
      9 N          64.9271   93.4811    9.7754 N.ar    1  UNL1       -0.2249
     10 C          66.1230   94.3823    9.8620 C.ar    1  UNL1        0.1006
     11 C          67.0491   94.2885   11.0383 C.ar    1  UNL1        0.0209
     12 C          66.7793   93.2936   12.1279 C.ar    1  UNL1        0.0094
     13 C          65.5833   92.3925   12.0412 C.ar    1  UNL1        0.0923
     14 C          65.3134   91.3975   13.1309 C.ar    1  UNL1        0.2685
     15 O          66.2395   91.3038   14.3071 O.2     1  UNL1       -0.2665
     16 N          64.1175   90.4963   13.0443 N.ar    1  UNL1       -0.2612
     17 C          63.8476   89.5013   14.1339 C.ar    1  UNL1        0.0680
     18 C          63.1982   89.9454   15.4110 C.ar    1  UNL1        0.0185
     19 C          62.9283   88.9505   16.5007 C.ar    1  UNL1        0.0129
     20 C          63.3078   87.5115   16.3131 C.ar    1  UNL1        0.0578
     21 CL         63.0379   86.5166   17.4028 Cl      1  UNL1       -0.0822
     22 C          63.9572   87.0674   15.0360 C.ar    1  UNL1        0.0129
     23 C          64.2271   88.0623   13.9464 C.ar    1  UNL1        0.0185
     24 C          62.5589   88.0490    9.8466 C.3     1  UNL1        0.0938
     25 C          62.6289   86.6499   10.3828 C.3     1  UNL1        0.0234
     26 C          62.2802   86.3777   11.8160 C.3     1  UNL1        0.0271
     27 C          62.3502   84.9786   12.3523 C.3     1  UNL1        0.1509
     28 S          62.7690   83.8517   11.4552 S.O2    1  UNL1       -0.0100
     29 O          63.1074   82.4626   11.0012 O.2     1  UNL1       -0.1730
     30 O          62.5378   83.0970   12.7309 O.2     1  UNL1       -0.1730
     31 C          63.1177   84.1239   10.0220 C.3     1  UNL1        0.1509
     32 C          63.0477   85.5230    9.4858 C.3     1  UNL1        0.0271
     33 C          59.9804   88.7637    8.4899 C.3     1  UNL1        0.1116
     34 C          59.7874   89.6105    7.2669 C.ar    1  UNL1       -0.0109
     35 C          58.4097   90.0500    6.8687 C.ar    1  UNL1       -0.0037
     36 C          58.2168   90.8968    5.6457 C.ar    1  UNL1        0.0058
     37 C          59.4016   91.3041    4.8209 C.ar    1  UNL1        0.0988
     38 C          60.7794   90.8645    5.2191 C.ar    1  UNL1        0.1437
     39 F          61.9642   91.2717    4.3943 F       1  UNL1       -0.2042
     40 C          60.9723   90.0177    6.4421 C.ar    1  UNL1        0.0258
     41 C          59.2086   92.1508    3.5979 C.3     1  UNL1        0.4207
     42 F          59.0157   92.9976    2.3749 F       1  UNL1       -0.1658
     43 F          57.7251   91.9519    3.6942 F       1  UNL1       -0.1658
     44 F          60.6922   92.3498    3.5016 F       1  UNL1       -0.1658
@<TRIPOS>BOND
     1     5     4    1
     2     5     6    1
     3     6     7   ar
     4     7     8   ar
     5     8     9   ar
     6     9    10   ar
     7    10    11   ar
     8    11    12   ar
     9    12    13   ar
    10    13    14   ar
    11    14    15    2
    12    14    16   ar
    13    16    17    1
    14    17    18   ar
    15    18    19   ar
    16    19    20   ar
    17    20    21    1
    18    20    22   ar
    19    22    23   ar
    20     5     1    1
    21     1    24    1
    22    24    25    1
    23    25    26    1
    24    26    27    1
    25    27    28    1
    26    28    29    2
    27    28    30    2
    28    28    31    1
    29    31    32    1
    30     1     2   am
    31     2     3    2
    32     2    33    1
    33    33    34    1
    34    34    35   ar
    35    35    36   ar
    36    36    37   ar
    37    37    41    1
    38    41    42    1
    39    41    43    1
    40    41    44    1
    41    37    38   ar
    42    38    39    1
    43    38    40   ar
    44    16     6   ar
    45    23    17   ar
    46    32    25    1
    47    40    34   ar
    48    13     8   ar
@<TRIPOS>MOLECULE
*****
 44 48 0 0 0
SMALL
GASTEIGER

@<TRIPOS>ATOM
      1 N          62.9769   89.9745   12.5639 N.am    1  UNL1       -0.2741
      2 C          63.9146   90.6741   11.6250 C.2     1  UNL1        0.2303
      3 O          63.8055   90.4444   10.1468 O.2     1  UNL1       -0.2745
      4 C          60.5273   89.5343   11.8185 C.3     1  UNL1        0.0297
      5 C          61.9303   89.0453   12.0245 C.3     1  UNL1        0.1325
      6 C          62.2866   87.6268   11.6911 C.ar    1  UNL1        0.1462
      7 N          63.0699   86.8008   12.6679 N.ar    1  UNL1       -0.2114
      8 C          63.4263   85.3824   12.3344 C.ar    1  UNL1        0.1682
      9 N          64.2096   84.5564   13.3112 N.ar    1  UNL1       -0.2249
     10 C          64.5660   83.1381   12.9777 C.ar    1  UNL1        0.1006
     11 C          64.1390   82.5457   11.6675 C.ar    1  UNL1        0.0209
     12 C          63.3557   83.3717   10.6907 C.ar    1  UNL1        0.0094
     13 C          62.9994   84.7900   11.0242 C.ar    1  UNL1        0.0923
     14 C          62.2160   85.6161   10.0473 C.ar    1  UNL1        0.2685
     15 O          61.7891   85.0237    8.7371 O.2     1  UNL1       -0.2665
     16 N          61.8597   87.0344   10.3808 N.ar    1  UNL1       -0.2612
     17 C          61.0763   87.8605    9.4040 C.ar    1  UNL1        0.0680
     18 C          59.9457   87.2423    8.6362 C.ar    1  UNL1        0.0185
     19 C          59.1624   88.0683    7.6594 C.ar    1  UNL1        0.0129
     20 C          59.5097   89.5124    7.4504 C.ar    1  UNL1        0.0578
     21 CL         58.7264   90.3385    6.4736 Cl      1  UNL1       -0.0822
     22 C          60.6403   90.1306    8.2182 C.ar    1  UNL1        0.0129
     23 C          61.4237   89.3047    9.1950 C.ar    1  UNL1        0.0185
     24 C          63.0859   90.2043   14.0422 C.3     1  UNL1        0.0938
     25 C          63.1660   89.0355   14.9790 C.3     1  UNL1        0.0234
     26 C          64.1756   87.9518   14.7414 C.3     1  UNL1        0.0271
     27 C          64.2557   86.7830   15.6782 C.3     1  UNL1        0.1509
     28 S          63.3263   86.6979   16.8525 S.O2    1  UNL1       -0.0100
     29 O          62.6681   86.1731   18.0940 O.2     1  UNL1       -0.1730
     30 O          64.1073   85.4319   17.0461 O.2     1  UNL1       -0.1730
     31 C          62.3168   87.7816   17.0900 C.3     1  UNL1        0.1509
     32 C          62.2366   88.9503   16.1532 C.3     1  UNL1        0.0271
     33 C          64.9612   91.6034   12.1645 C.3     1  UNL1        0.1116
     34 C          65.5921   92.6252   11.2657 C.ar    1  UNL1       -0.0109
     35 C          66.8614   92.3001   10.5355 C.ar    1  UNL1       -0.0037
     36 C          67.4924   93.3219    9.6366 C.ar    1  UNL1        0.0058
     37 C          66.8540   94.6688    9.4680 C.ar    1  UNL1        0.0988
     38 C          65.5846   94.9938   10.1982 C.ar    1  UNL1        0.1437
     39 F          64.9462   96.3406   10.0296 F       1  UNL1       -0.2042
     40 C          64.9537   93.9721   11.0970 C.ar    1  UNL1        0.0258
     41 C          67.4849   95.6905    8.5692 C.3     1  UNL1        0.4207
     42 F          68.1159   96.7124    7.6704 F       1  UNL1       -0.1658
     43 F          67.2432   94.7997    7.3869 F       1  UNL1       -0.1658
     44 F          67.7266   96.5813    9.7515 F       1  UNL1       -0.1658
@<TRIPOS>BOND
     1     5     4    1
     2     5     6    1
     3     6     7   ar
     4     7     8   ar
     5     8     9   ar
     6     9    10   ar
     7    10    11   ar
     8    11    12   ar
     9    12    13   ar
    10    13    14   ar
    11    14    15    2
    12    14    16   ar
    13    16    17    1
    14    17    18   ar
    15    18    19   ar
    16    19    20   ar
    17    20    21    1
    18    20    22   ar
    19    22    23   ar
    20     5     1    1
    21     1    24    1
    22    24    25    1
    23    25    26    1
    24    26    27    1
    25    27    28    1
    26    28    29    2
    27    28    30    2
    28    28    31    1
    29    31    32    1
    30     1     2   am
    31     2     3    2
    32     2    33    1
    33    33    34    1
    34    34    35   ar
    35    35    36   ar
    36    36    37   ar
    37    37    41    1
    38    41    42    1
    39    41    43    1
    40    41    44    1
    41    37    38   ar
    42    38    39    1
    43    38    40   ar
    44    16     6   ar
    45    23    17   ar
    46    32    25    1
    47    40    34   ar
    48    13     8   ar
@<TRIPOS>MOLECULE
*****
 44 48 0 0 0
SMALL
GASTEIGER

@<TRIPOS>ATOM
      1 N          63.3630   90.8826   11.8905 N.am    1  UNL1       -0.2741
      2 C          64.0426   91.4773   13.0883 C.2     1  UNL1        0.2303
      3 O          63.6509   91.0378   14.4679 O.2     1  UNL1       -0.2745
      4 C          60.8488   90.2578   12.0863 C.3     1  UNL1        0.0297
      5 C          62.2918   89.8485   12.0725 C.3     1  UNL1        0.1325
      6 C          62.6636   88.4050   12.2406 C.ar    1  UNL1        0.1462
      7 N          63.5251   87.9817   13.3932 N.ar    1  UNL1       -0.2114
      8 C          63.8969   86.5383   13.5613 C.ar    1  UNL1        0.1682
      9 N          64.7583   86.1150   14.7140 N.ar    1  UNL1       -0.2249
     10 C          65.1301   84.6716   14.8821 C.ar    1  UNL1        0.1006
     11 C          64.6404   83.6514   13.8974 C.ar    1  UNL1        0.0209
     12 C          63.7790   84.0747   12.7448 C.ar    1  UNL1        0.0094
     13 C          63.4072   85.5181   12.5767 C.ar    1  UNL1        0.0923
     14 C          62.5457   85.9414   11.4240 C.ar    1  UNL1        0.2685
     15 O          62.0561   84.9213   10.4393 O.2     1  UNL1       -0.2665
     16 N          62.1740   87.3848   11.2559 N.ar    1  UNL1       -0.2612
     17 C          61.3125   87.8082   10.1032 C.ar    1  UNL1        0.0680
     18 C          61.5664   89.1185    9.4187 C.ar    1  UNL1        0.0185
     19 C          60.7050   89.5419    8.2660 C.ar    1  UNL1        0.0129
     20 C          59.5896   88.6549    7.7978 C.ar    1  UNL1        0.0578
     21 CL         58.7282   89.0782    6.6451 Cl      1  UNL1       -0.0822
     22 C          59.3357   87.3445    8.4823 C.ar    1  UNL1        0.0129
     23 C          60.1972   86.9212    9.6350 C.ar    1  UNL1        0.0185
     24 C          63.7547   91.3220   10.5109 C.3     1  UNL1        0.0938
     25 C          64.9574   92.1969   10.3155 C.3     1  UNL1        0.0234
     26 C          66.3083   91.5791   10.1075 C.3     1  UNL1        0.0271
     27 C          67.5110   92.4540    9.9121 C.3     1  UNL1        0.1509
     28 S          67.3628   93.9465    9.9248 S.O2    1  UNL1       -0.0100
     29 O          67.7278   95.3999    9.8571 O.2     1  UNL1       -0.1730
     30 O          68.8405   93.8335    9.6932 O.2     1  UNL1       -0.1730
     31 C          66.0119   94.5643   10.1328 C.3     1  UNL1        0.1509
     32 C          64.8092   93.6894   10.3282 C.3     1  UNL1        0.0271
     33 C          65.1138   92.5114   12.9063 C.3     1  UNL1        0.1116
     34 C          66.2679   92.5720   13.8625 C.ar    1  UNL1       -0.0109
     35 C          66.0291   92.9003   15.3065 C.ar    1  UNL1       -0.0037
     36 C          67.1833   92.9609   16.2627 C.ar    1  UNL1        0.0058
     37 C          68.5763   92.6932   15.7748 C.ar    1  UNL1        0.0988
     38 C          68.8151   92.3648   14.3308 C.ar    1  UNL1        0.1437
     39 F          70.2080   92.0971   13.8430 F       1  UNL1       -0.2042
     40 C          67.6609   92.3042   13.3747 C.ar    1  UNL1        0.0258
     41 C          69.7304   92.7538   16.7310 C.3     1  UNL1        0.4207
     42 F          70.8846   92.8144   17.6872 F       1  UNL1       -0.1658
     43 F          69.3810   91.3865   17.2393 F       1  UNL1       -0.1658
     44 F          70.0797   94.1210   16.2227 F       1  UNL1       -0.1658
@<TRIPOS>BOND
     1     5     4    1
     2     5     6    1
     3     6     7   ar
     4     7     8   ar
     5     8     9   ar
     6     9    10   ar
     7    10    11   ar
     8    11    12   ar
     9    12    13   ar
    10    13    14   ar
    11    14    15    2
    12    14    16   ar
    13    16    17    1
    14    17    18   ar
    15    18    19   ar
    16    19    20   ar
    17    20    21    1
    18    20    22   ar
    19    22    23   ar
    20     5     1    1
    21     1    24    1
    22    24    25    1
    23    25    26    1
    24    26    27    1
    25    27    28    1
    26    28    29    2
    27    28    30    2
    28    28    31    1
    29    31    32    1
    30     1     2   am
    31     2     3    2
    32     2    33    1
    33    33    34    1
    34    34    35   ar
    35    35    36   ar
    36    36    37   ar
    37    37    41    1
    38    41    42    1
    39    41    43    1
    40    41    44    1
    41    37    38   ar
    42    38    39    1
    43    38    40   ar
    44    16     6   ar
    45    23    17   ar
    46    32    25    1
    47    40    34   ar
    48    13     8   ar
@<TRIPOS>MOLECULE
*****
 44 48 0 0 0
SMALL
GASTEIGER

@<TRIPOS>ATOM
      1 N          62.8306   87.4867   13.3481 N.am    1  UNL1       -0.2741
      2 C          61.9179   86.9556   12.2828 C.2     1  UNL1        0.2303
      3 O          60.8019   87.8090   11.7574 O.2     1  UNL1       -0.2745
      4 C          61.4080   89.1871   14.7027 C.3     1  UNL1        0.0297
      5 C          62.6273   88.8713   13.8880 C.3     1  UNL1        0.1325
      6 C          63.6432   89.9402   13.6132 C.ar    1  UNL1        0.1462
      7 N          64.6624   90.2922   14.6559 N.ar    1  UNL1       -0.2114
      8 C          65.6783   91.3611   14.3811 C.ar    1  UNL1        0.1682
      9 N          66.6975   91.7130   15.4238 N.ar    1  UNL1       -0.2249
     10 C          67.7134   92.7818   15.1489 C.ar    1  UNL1        0.1006
     11 C          67.7100   93.4987   13.8313 C.ar    1  UNL1        0.0209
     12 C          66.6908   93.1468   12.7886 C.ar    1  UNL1        0.0094
     13 C          65.6749   92.0780   13.0635 C.ar    1  UNL1        0.0923
     14 C          64.6556   91.7260   12.0207 C.ar    1  UNL1        0.2685
     15 O          64.6523   92.4429   10.7032 O.2     1  UNL1       -0.2665
     16 N          63.6398   90.6572   12.2956 N.ar    1  UNL1       -0.2612
     17 C          62.6205   90.3052   11.2529 C.ar    1  UNL1        0.0680
     18 C          61.2285   90.8558   11.3488 C.ar    1  UNL1        0.0185
     19 C          60.2093   90.5039   10.3061 C.ar    1  UNL1        0.0129
     20 C          60.5820   89.6013    9.1675 C.ar    1  UNL1        0.0578
     21 CL         59.5627   89.2493    8.1248 Cl      1  UNL1       -0.0822
     22 C          61.9740   89.0507    9.0716 C.ar    1  UNL1        0.0129
     23 C          62.9932   89.4026   10.1143 C.ar    1  UNL1        0.0185
     24 C          63.9467   86.6333   13.8735 C.3     1  UNL1        0.0938
     25 C          63.7889   85.1426   13.9286 C.3     1  UNL1        0.0234
     26 C          62.7795   84.5290   14.8531 C.3     1  UNL1        0.0271
     27 C          62.6217   83.0383   14.9082 C.3     1  UNL1        0.1509
     28 S          63.4732   82.1613   14.0389 S.O2    1  UNL1       -0.0100
     29 O          64.0429   80.9217   13.4154 O.2     1  UNL1       -0.1730
     30 O          62.6617   81.1171   14.7469 O.2     1  UNL1       -0.1730
     31 C          64.4825   82.7750   13.1145 C.3     1  UNL1        0.1509
     32 C          64.6404   84.2656   13.0593 C.3     1  UNL1        0.0271
     33 C          62.1213   85.5709   11.7429 C.3     1  UNL1        0.1116
     34 C          62.0760   85.3287   10.2633 C.ar    1  UNL1       -0.0109
     35 C          63.1798   84.5645    9.5943 C.ar    1  UNL1       -0.0037
     36 C          63.1344   84.3223    8.1146 C.ar    1  UNL1        0.0058
     37 C          61.9853   84.8443    7.3041 C.ar    1  UNL1        0.0988
     38 C          60.8815   85.6085    7.9731 C.ar    1  UNL1        0.1437
     39 F          59.7324   86.1304    7.1626 F       1  UNL1       -0.2042
     40 C          60.9268   85.8507    9.4527 C.ar    1  UNL1        0.0258
     41 C          61.9400   84.6020    5.8245 C.3     1  UNL1        0.4207
     42 F          61.8946   84.3598    4.3448 F       1  UNL1       -0.1658
     43 F          63.3426   85.1181    5.6970 F       1  UNL1       -0.1658
     44 F          60.5374   84.0859    5.9519 F       1  UNL1       -0.1658
@<TRIPOS>BOND
     1     5     4    1
     2     5     6    1
     3     6     7   ar
     4     7     8   ar
     5     8     9   ar
     6     9    10   ar
     7    10    11   ar
     8    11    12   ar
     9    12    13   ar
    10    13    14   ar
    11    14    15    2
    12    14    16   ar
    13    16    17    1
    14    17    18   ar
    15    18    19   ar
    16    19    20   ar
    17    20    21    1
    18    20    22   ar
    19    22    23   ar
    20     5     1    1
    21     1    24    1
    22    24    25    1
    23    25    26    1
    24    26    27    1
    25    27    28    1
    26    28    29    2
    27    28    30    2
    28    28    31    1
    29    31    32    1
    30     1     2   am
    31     2     3    2
    32     2    33    1
    33    33    34    1
    34    34    35   ar
    35    35    36   ar
    36    36    37   ar
    37    37    41    1
    38    41    42    1
    39    41    43    1
    40    41    44    1
    41    37    38   ar
    42    38    39    1
    43    38    40   ar
    44    16     6   ar
    45    23    17   ar
    46    32    25    1
    47    40    34   ar
    48    13     8   ar
