@<TRIPOS>MOLECULE
*****
 34 38 0 0 0
SMALL
GASTEIGER

@<TRIPOS>ATOM
      1 C          66.3508   93.4850   13.6028 C.ar    1  UNL1        0.2276
      2 N          66.9140   94.6828   12.8972 N.ar    1  UNL1       -0.2100
      3 C          66.5195   94.9722   11.4792 C.ar    1  UNL1        0.1035
      4 C          65.5618   94.0638   10.7669 C.ar    1  UNL1        0.0381
      5 C          64.9985   92.8660   11.4725 C.ar    1  UNL1        0.0676
      6 C          65.3930   92.5766   12.8905 C.ar    1  UNL1        0.0881
      7 C          64.6797   91.3307   13.3250 C.ar    1  UNL1        0.1074
      8 N          64.6829   90.5717   14.6188 N.ar    1  UNL1       -0.2222
      9 C          63.8507   89.3321   14.7632 C.ar    1  UNL1        0.2001
     10 N          63.0154   88.8514   13.6138 N.ar    1  UNL1       -0.2075
     11 C          63.0122   89.6104   12.3200 C.ar    1  UNL1        0.1509
     12 C          63.8443   90.8500   12.1756 C.ar    1  UNL1        0.1101
     13 N          64.0414   91.7989   11.0307 N.ar    1  UNL1       -0.3216
     14 C          63.3948   91.6983    9.6810 C.3     1  UNL1        0.1306
     15 N          62.1768   89.1297   11.1706 N.pl3   1  UNL1       -0.2892
     16 C          62.5657   87.8847   10.4299 C.3     1  UNL1        0.1095
     17 C          61.7303   87.4041    9.2805 C.3     1  UNL1        0.0939
     18 N          60.5060   88.1684    8.8718 N.3     1  UNL1       -0.2695
     19 C          60.1171   89.4134    9.6126 C.3     1  UNL1        0.0939
     20 C          60.9525   89.8940   10.7619 C.3     1  UNL1        0.1095
     21 C          59.6707   87.6877    7.7224 C.3     1  UNL1        0.0769
     22 C          58.5574   88.5435    7.1948 C.3     1  UNL1        0.0437
     23 C          58.8609   89.6767    6.2601 C.ar    1  UNL1       -0.0184
     24 C          57.7582   90.5803    5.7941 C.ar    1  UNL1       -0.0018
     25 C          58.0617   91.7136    4.8593 C.ar    1  UNL1        0.0316
     26 C          59.4680   91.9431    4.3906 C.ar    1  UNL1        0.1674
     27 F          59.7715   93.0763    3.4559 F       1  UNL1       -0.2018
     28 C          60.5708   91.0394    4.8567 C.ar    1  UNL1        0.1671
     29 F          61.9771   91.2689    4.3880 F       1  UNL1       -0.2018
     30 C          60.2672   89.9062    5.7914 C.ar    1  UNL1        0.0277
     31 O          66.7453   93.1957   15.0208 O.3     1  UNL1       -0.4639
     32 C          68.8927   94.2053   16.0786 C.3     1  UNL1        0.0473
     33 C          68.1949   93.0726   15.3858 C.3     1  UNL1        0.1678
     34 C          68.9469   91.8167   15.0579 C.3     1  UNL1        0.0473
@<TRIPOS>BOND
     1    32    33    1
     2    33    34    1
     3    33    31    1
     4    31     1    1
     5     1     2   ar
     6     2     3   ar
     7     3     4   ar
     8     4     5   ar
     9     5     6   ar
    10     6     7   ar
    11     7     8   ar
    12     8     9   ar
    13     9    10   ar
    14    10    11   ar
    15    11    15    1
    16    15    16    1
    17    16    17    1
    18    17    18    1
    19    18    21    1
    20    21    22    1
    21    22    23    1
    22    23    24   ar
    23    24    25   ar
    24    25    26   ar
    25    26    27    1
    26    26    28   ar
    27    28    29    1
    28    28    30   ar
    29    18    19    1
    30    19    20    1
    31    11    12   ar
    32    12    13   ar
    33    13    14    1
    34     6     1   ar
    35    12     7   ar
    36    13     5   ar
    37    20    15    1
    38    30    23   ar
@<TRIPOS>MOLECULE
*****
 34 38 0 0 0
SMALL
GASTEIGER

@<TRIPOS>ATOM
      1 C          66.4788   93.8829   13.4388 C.ar    1  UNL1        0.2276
      2 N          67.1496   94.8508   12.5097 N.ar    1  UNL1       -0.2100
      3 C          66.7837   94.8705   11.0552 C.ar    1  UNL1        0.1035
      4 C          65.7471   93.9222   10.5296 C.ar    1  UNL1        0.0381
      5 C          65.0764   92.9543   11.4587 C.ar    1  UNL1        0.0676
      6 C          65.4422   92.9346   12.9132 C.ar    1  UNL1        0.0881
      7 C          64.6178   91.8763   13.5843 C.ar    1  UNL1        0.1074
      8 N          64.5511   91.4084   15.0078 N.ar    1  UNL1       -0.2222
      9 C          63.6089   90.3060   15.3916 C.ar    1  UNL1        0.2001
     10 N          62.7335   89.6716   14.3518 N.ar    1  UNL1       -0.2075
     11 C          62.8003   90.1396   12.9282 C.ar    1  UNL1        0.1509
     12 C          63.7424   91.2419   12.5445 C.ar    1  UNL1        0.1101
     13 N          64.0258   91.9082   11.2308 N.ar    1  UNL1       -0.3216
     14 C          63.3733   91.5850    9.9194 C.3     1  UNL1        0.1306
     15 N          61.9248   89.5052   11.8885 N.pl3   1  UNL1       -0.2892
     16 C          60.4355   89.4965   12.0658 C.3     1  UNL1        0.1095
     17 C          59.5601   88.8620   11.0259 C.3     1  UNL1        0.0939
     18 N          60.1741   88.2363    9.8088 N.3     1  UNL1       -0.2695
     19 C          61.6636   88.2450    9.6315 C.3     1  UNL1        0.0939
     20 C          62.5389   88.8794   10.6713 C.3     1  UNL1        0.1095
     21 C          59.2987   87.6019    8.7690 C.3     1  UNL1        0.0769
     22 C          59.7531   86.3590    8.0628 C.3     1  UNL1        0.0437
     23 C          60.9938   85.6491    8.5174 C.ar    1  UNL1       -0.0184
     24 C          62.0266   85.2274    7.5147 C.ar    1  UNL1       -0.0018
     25 C          63.2674   84.5175    7.9694 C.ar    1  UNL1        0.0316
     26 C          63.4753   84.2294    9.4267 C.ar    1  UNL1        0.1674
     27 F          64.7160   83.5196    9.8813 F       1  UNL1       -0.2018
     28 C          62.4425   84.6512   10.4294 C.ar    1  UNL1        0.1671
     29 F          62.6504   84.3631   11.8867 F       1  UNL1       -0.2018
     30 C          61.2018   85.3610    9.9748 C.ar    1  UNL1        0.0277
     31 O          66.8447   93.8632   14.8933 O.3     1  UNL1       -0.4639
     32 C          69.2080   93.8339   15.9721 C.3     1  UNL1        0.0473
     33 C          68.0538   93.1034   15.3524 C.3     1  UNL1        0.1678
     34 C          68.1086   91.6130   15.1917 C.3     1  UNL1        0.0473
@<TRIPOS>BOND
     1    32    33    1
     2    33    34    1
     3    33    31    1
     4    31     1    1
     5     1     2   ar
     6     2     3   ar
     7     3     4   ar
     8     4     5   ar
     9     5     6   ar
    10     6     7   ar
    11     7     8   ar
    12     8     9   ar
    13     9    10   ar
    14    10    11   ar
    15    11    15    1
    16    15    16    1
    17    16    17    1
    18    17    18    1
    19    18    21    1
    20    21    22    1
    21    22    23    1
    22    23    24   ar
    23    24    25   ar
    24    25    26   ar
    25    26    27    1
    26    26    28   ar
    27    28    29    1
    28    28    30   ar
    29    18    19    1
    30    19    20    1
    31    11    12   ar
    32    12    13   ar
    33    13    14    1
    34     6     1   ar
    35    12     7   ar
    36    13     5   ar
    37    20    15    1
    38    30    23   ar
@<TRIPOS>MOLECULE
*****
 34 38 0 0 0
SMALL
GASTEIGER

@<TRIPOS>ATOM
      1 C          64.4434   88.2253   14.4069 C.ar    1  UNL1        0.2276
      2 N          64.9978   89.4693   15.0354 N.ar    1  UNL1       -0.2100
      3 C          64.7052   90.8100   14.4298 C.ar    1  UNL1        0.1035
      4 C          63.8580   90.9068   13.1958 C.ar    1  UNL1        0.0381
      5 C          63.3036   89.6628   12.5673 C.ar    1  UNL1        0.0676
      6 C          63.5963   88.3221   13.1728 C.ar    1  UNL1        0.0881
      7 C          62.9171   87.2779   12.3372 C.ar    1  UNL1        0.1074
      8 N          62.8553   85.7836   12.4530 N.ar    1  UNL1       -0.2222
      9 C          62.0811   84.9847   11.4468 C.ar    1  UNL1        0.2001
     10 N          61.3686   85.6801   10.3248 N.ar    1  UNL1       -0.2075
     11 C          61.4304   87.1743   10.2090 C.ar    1  UNL1        0.1509
     12 C          62.2046   87.9732   11.2152 C.ar    1  UNL1        0.1101
     13 N          62.4435   89.4472   11.3574 N.ar    1  UNL1       -0.3216
     14 C          61.9151   90.5177   10.4492 C.3     1  UNL1        0.1306
     15 N          60.7179   87.8697    9.0870 N.pl3   1  UNL1       -0.2892
     16 C          60.5383   89.3584    9.1210 C.3     1  UNL1        0.1095
     17 C          59.8258   90.0537    7.9989 C.3     1  UNL1        0.0939
     18 N          59.2930   89.2603    6.8429 N.3     1  UNL1       -0.2695
     19 C          59.4727   87.7714    6.8088 C.3     1  UNL1        0.0939
     20 C          60.1851   87.0762    7.9308 C.3     1  UNL1        0.1095
     21 C          58.5806   89.9556    5.7209 C.3     1  UNL1        0.0769
     22 C          58.8944   91.3884    5.4068 C.3     1  UNL1        0.0437
     23 C          59.9754   91.7208    4.4214 C.ar    1  UNL1       -0.0184
     24 C          59.7182   92.7236    3.3360 C.ar    1  UNL1       -0.0018
     25 C          60.7992   93.0561    2.3506 C.ar    1  UNL1        0.0316
     26 C          62.1373   92.3856    2.4506 C.ar    1  UNL1        0.1674
     27 F          63.2182   92.7181    1.4651 F       1  UNL1       -0.2018
     28 C          62.3944   91.3827    3.5360 C.ar    1  UNL1        0.1671
     29 F          63.7325   90.7123    3.6360 F       1  UNL1       -0.2018
     30 C          61.3135   91.0504    4.5214 C.ar    1  UNL1        0.0277
     31 O          64.7361   86.8845   15.0124 O.3     1  UNL1       -0.4639
     32 C          63.3676   84.8111   15.7727 C.3     1  UNL1        0.0473
     33 C          63.7478   86.2516   15.9466 C.3     1  UNL1        0.1678
     34 C          63.1397   87.0593   17.0547 C.3     1  UNL1        0.0473
@<TRIPOS>BOND
     1    32    33    1
     2    33    34    1
     3    33    31    1
     4    31     1    1
     5     1     2   ar
     6     2     3   ar
     7     3     4   ar
     8     4     5   ar
     9     5     6   ar
    10     6     7   ar
    11     7     8   ar
    12     8     9   ar
    13     9    10   ar
    14    10    11   ar
    15    11    15    1
    16    15    16    1
    17    16    17    1
    18    17    18    1
    19    18    21    1
    20    21    22    1
    21    22    23    1
    22    23    24   ar
    23    24    25   ar
    24    25    26   ar
    25    26    27    1
    26    26    28   ar
    27    28    29    1
    28    28    30   ar
    29    18    19    1
    30    19    20    1
    31    11    12   ar
    32    12    13   ar
    33    13    14    1
    34     6     1   ar
    35    12     7   ar
    36    13     5   ar
    37    20    15    1
    38    30    23   ar
@<TRIPOS>MOLECULE
*****
 34 38 0 0 0
SMALL
GASTEIGER

@<TRIPOS>ATOM
      1 C          62.8982   82.3438   12.9900 C.ar    1  UNL1        0.2276
      2 N          63.3750   81.4623   14.1061 N.ar    1  UNL1       -0.2100
      3 C          64.0772   82.0623   15.2880 C.ar    1  UNL1        0.1035
      4 C          64.3027   83.5438   15.3538 C.ar    1  UNL1        0.0381
      5 C          63.8259   84.4253   14.2378 C.ar    1  UNL1        0.0676
      6 C          63.1237   83.8253   13.0559 C.ar    1  UNL1        0.0881
      7 C          62.7687   84.9374   12.1140 C.ar    1  UNL1        0.1074
      8 N          62.0682   84.9442   10.7877 N.ar    1  UNL1       -0.2222
      9 C          61.8505   86.2384   10.0611 C.ar    1  UNL1        0.2001
     10 N          62.3333   87.5257   10.6608 N.ar    1  UNL1       -0.2075
     11 C          63.0339   87.5188   11.9871 C.ar    1  UNL1        0.1509
     12 C          63.2516   86.2247   12.7137 C.ar    1  UNL1        0.1101
     13 N          63.9050   85.9082   14.0263 N.ar    1  UNL1       -0.3216
     14 C          64.5280   86.9003   14.9630 C.3     1  UNL1        0.1306
     15 N          63.5167   88.8061   12.5869 N.pl3   1  UNL1       -0.2892
     16 C          64.2570   88.7946   13.8913 C.3     1  UNL1        0.1095
     17 C          64.7399   90.0820   14.4911 C.3     1  UNL1        0.0939
     18 N          64.4824   91.3808   13.7863 N.3     1  UNL1       -0.2695
     19 C          63.7420   91.3923   12.4817 C.3     1  UNL1        0.0939
     20 C          63.2592   90.1051   11.8821 C.3     1  UNL1        0.1095
     21 C          64.9652   92.6681   14.3860 C.3     1  UNL1        0.0769
     22 C          66.2915   93.2360   13.9753 C.3     1  UNL1        0.0437
     23 C          66.5932   93.4626   12.5236 C.ar    1  UNL1       -0.0184
     24 C          66.2615   94.7787   11.8852 C.ar    1  UNL1       -0.0018
     25 C          66.5632   95.0053   10.4334 C.ar    1  UNL1        0.0316
     26 C          67.1967   93.9158    9.6201 C.ar    1  UNL1        0.1674
     27 F          67.4984   94.1424    8.1683 F       1  UNL1       -0.2018
     28 C          67.5285   92.5995   10.2585 C.ar    1  UNL1        0.1671
     29 F          68.1619   91.5100    9.4452 F       1  UNL1       -0.2018
     30 C          67.2267   92.3730   11.7102 C.ar    1  UNL1        0.0277
     31 O          62.1959   81.7439   11.8081 O.3     1  UNL1       -0.4639
     32 C          64.0423   82.1552   10.0272 C.3     1  UNL1        0.0473
     33 C          62.9882   81.2714   10.6254 C.3     1  UNL1        0.1678
     34 C          62.7264   79.9150   10.0407 C.3     1  UNL1        0.0473
@<TRIPOS>BOND
     1    32    33    1
     2    33    34    1
     3    33    31    1
     4    31     1    1
     5     1     2   ar
     6     2     3   ar
     7     3     4   ar
     8     4     5   ar
     9     5     6   ar
    10     6     7   ar
    11     7     8   ar
    12     8     9   ar
    13     9    10   ar
    14    10    11   ar
    15    11    15    1
    16    15    16    1
    17    16    17    1
    18    17    18    1
    19    18    21    1
    20    21    22    1
    21    22    23    1
    22    23    24   ar
    23    24    25   ar
    24    25    26   ar
    25    26    27    1
    26    26    28   ar
    27    28    29    1
    28    28    30   ar
    29    18    19    1
    30    19    20    1
    31    11    12   ar
    32    12    13   ar
    33    13    14    1
    34     6     1   ar
    35    12     7   ar
    36    13     5   ar
    37    20    15    1
    38    30    23   ar
@<TRIPOS>MOLECULE
*****
 34 38 0 0 0
SMALL
GASTEIGER

@<TRIPOS>ATOM
      1 C          61.3519   86.8328   10.9651 C.ar    1  UNL1        0.2276
      2 N          60.5069   86.8415    9.7258 N.ar    1  UNL1       -0.2100
      3 C          60.4832   88.0538    8.8427 C.ar    1  UNL1        0.1035
      4 C          61.3045   89.2573    9.1989 C.ar    1  UNL1        0.0381
      5 C          62.1495   89.2486   10.4382 C.ar    1  UNL1        0.0676
      6 C          62.1732   88.0363   11.3212 C.ar    1  UNL1        0.0881
      7 C          63.0955   88.3178   12.4702 C.ar    1  UNL1        0.1074
      8 N          63.5084   87.4909   13.6516 N.ar    1  UNL1       -0.2222
      9 C          64.4677   88.0503   14.6601 C.ar    1  UNL1        0.2001
     10 N          65.0140   89.4365   14.4871 N.ar    1  UNL1       -0.2075
     11 C          64.6011   90.2633   13.3057 C.ar    1  UNL1        0.1509
     12 C          63.6418   89.7040   12.2973 C.ar    1  UNL1        0.1101
     13 N          63.0572   90.2792   11.0414 N.ar    1  UNL1       -0.3216
     14 C          63.3319   91.6453   10.4861 C.3     1  UNL1        0.1306
     15 N          65.1474   91.6495   13.1328 N.pl3   1  UNL1       -0.2892
     16 C          65.1123   92.3067   11.7850 C.3     1  UNL1        0.1095
     17 C          65.6587   93.6930   11.6120 C.3     1  UNL1        0.0939
     18 N          66.2402   94.4220   12.7870 N.3     1  UNL1       -0.2695
     19 C          66.2753   93.7647   14.1349 C.3     1  UNL1        0.0939
     20 C          65.7289   92.3786   14.3078 C.3     1  UNL1        0.1095
     21 C          66.7865   95.8082   12.6140 C.3     1  UNL1        0.0769
     22 C          65.9682   96.8556   11.9188 C.3     1  UNL1        0.0437
     23 C          65.8641   96.8552   10.4224 C.ar    1  UNL1       -0.0184
     24 C          64.5163   96.8555    9.7644 C.ar    1  UNL1       -0.0018
     25 C          64.4122   96.8551    8.2679 C.ar    1  UNL1        0.0316
     26 C          65.6561   96.8544    7.4297 C.ar    1  UNL1        0.1674
     27 F          65.5521   96.8540    5.9333 F       1  UNL1       -0.2018
     28 C          67.0041   96.8541    8.0878 C.ar    1  UNL1        0.1671
     29 F          68.2480   96.8534    7.2495 F       1  UNL1       -0.2018
     30 C          67.1080   96.8545    9.5841 C.ar    1  UNL1        0.0277
     31 O          61.3755   85.6205   11.8481 O.3     1  UNL1       -0.4639
     32 C          63.0144   83.9401   12.9618 C.3     1  UNL1        0.0473
     33 C          62.4981   84.6321   11.7352 C.3     1  UNL1        0.1678
     34 C          63.1045   84.3357   10.3955 C.3     1  UNL1        0.0473
@<TRIPOS>BOND
     1    32    33    1
     2    33    34    1
     3    33    31    1
     4    31     1    1
     5     1     2   ar
     6     2     3   ar
     7     3     4   ar
     8     4     5   ar
     9     5     6   ar
    10     6     7   ar
    11     7     8   ar
    12     8     9   ar
    13     9    10   ar
    14    10    11   ar
    15    11    15    1
    16    15    16    1
    17    16    17    1
    18    17    18    1
    19    18    21    1
    20    21    22    1
    21    22    23    1
    22    23    24   ar
    23    24    25   ar
    24    25    26   ar
    25    26    27    1
    26    26    28   ar
    27    28    29    1
    28    28    30   ar
    29    18    19    1
    30    19    20    1
    31    11    12   ar
    32    12    13   ar
    33    13    14    1
    34     6     1   ar
    35    12     7   ar
    36    13     5   ar
    37    20    15    1
    38    30    23   ar
@<TRIPOS>MOLECULE
*****
 34 38 0 0 0
SMALL
GASTEIGER

@<TRIPOS>ATOM
      1 C          60.2076   86.8125    7.9700 C.ar    1  UNL1        0.2276
      2 N          59.4502   87.6751    7.0044 N.ar    1  UNL1       -0.2100
      3 C          59.3947   89.1600    7.2094 C.ar    1  UNL1        0.1035
      4 C          60.0965   89.7823    8.3799 C.ar    1  UNL1        0.0381
      5 C          60.8539   88.9197    9.3454 C.ar    1  UNL1        0.0676
      6 C          60.9094   87.4348    9.1405 C.ar    1  UNL1        0.0881
      7 C          61.7278   86.8440   10.2501 C.ar    1  UNL1        0.1074
      8 N          62.1212   85.4311   10.5644 N.ar    1  UNL1       -0.2222
      9 C          62.9649   85.1379   11.7695 C.ar    1  UNL1        0.2001
     10 N          63.4152   86.2576   12.6603 N.ar    1  UNL1       -0.2075
     11 C          63.0218   87.6706   12.3459 C.ar    1  UNL1        0.1509
     12 C          62.1781   87.9638   11.1408 C.ar    1  UNL1        0.1101
     13 N          61.6380   89.2466   10.5817 N.ar    1  UNL1       -0.3216
     14 C          61.8455   90.6159   11.1577 C.3     1  UNL1        0.1306
     15 N          63.4721   88.7903   13.2366 N.pl3   1  UNL1       -0.2892
     16 C          63.4808   88.6073   14.7253 C.3     1  UNL1        0.1095
     17 C          63.9311   89.7271   15.6160 C.3     1  UNL1        0.0939
     18 N          64.3727   91.0299   15.0180 N.3     1  UNL1       -0.2695
     19 C          64.3641   91.2129   13.5292 C.3     1  UNL1        0.0939
     20 C          63.9138   90.0932   12.6386 C.3     1  UNL1        0.1095
     21 C          64.8230   92.1496   15.9087 C.3     1  UNL1        0.0769
     22 C          66.0711   92.9139   15.5800 C.3     1  UNL1        0.0437
     23 C          66.7086   92.7645   14.2304 C.ar    1  UNL1       -0.0184
     24 C          67.8469   91.8064   14.0407 C.ar    1  UNL1       -0.0018
     25 C          68.4844   91.6570   12.6910 C.ar    1  UNL1        0.0316
     26 C          67.9834   92.4657   11.5313 C.ar    1  UNL1        0.1674
     27 F          68.6209   92.3162   10.1817 F       1  UNL1       -0.2018
     28 C          66.8450   93.4238   11.7211 C.ar    1  UNL1        0.1671
     29 F          66.3441   94.2325   10.5613 F       1  UNL1       -0.2018
     30 C          66.2076   93.5732   13.0706 C.ar    1  UNL1        0.0277
     31 O          60.2631   85.3276    7.7650 O.3     1  UNL1       -0.4639
     32 C          61.0796   84.0162    5.6761 C.3     1  UNL1        0.0473
     33 C          61.3784   84.7220    6.9655 C.3     1  UNL1        0.1678
     34 C          62.7927   84.8223    7.4553 C.3     1  UNL1        0.0473
@<TRIPOS>BOND
     1    32    33    1
     2    33    34    1
     3    33    31    1
     4    31     1    1
     5     1     2   ar
     6     2     3   ar
     7     3     4   ar
     8     4     5   ar
     9     5     6   ar
    10     6     7   ar
    11     7     8   ar
    12     8     9   ar
    13     9    10   ar
    14    10    11   ar
    15    11    15    1
    16    15    16    1
    17    16    17    1
    18    17    18    1
    19    18    21    1
    20    21    22    1
    21    22    23    1
    22    23    24   ar
    23    24    25   ar
    24    25    26   ar
    25    26    27    1
    26    26    28   ar
    27    28    29    1
    28    28    30   ar
    29    18    19    1
    30    19    20    1
    31    11    12   ar
    32    12    13   ar
    33    13    14    1
    34     6     1   ar
    35    12     7   ar
    36    13     5   ar
    37    20    15    1
    38    30    23   ar
@<TRIPOS>MOLECULE
*****
 34 38 0 0 0
SMALL
GASTEIGER

@<TRIPOS>ATOM
      1 C          64.3084   83.8928   12.7927 C.ar    1  UNL1        0.2276
      2 N          64.6026   82.5024   12.3130 N.ar    1  UNL1       -0.2100
      3 C          64.1112   82.0530   10.9689 C.ar    1  UNL1        0.1035
      4 C          63.3257   82.9941   10.1044 C.ar    1  UNL1        0.0381
      5 C          63.0316   84.3845   10.5841 C.ar    1  UNL1        0.0676
      6 C          63.5229   84.8339   11.9282 C.ar    1  UNL1        0.0881
      7 C          63.0819   86.2530   12.1323 C.ar    1  UNL1        0.1074
      8 N          63.2772   87.2110   13.2698 N.ar    1  UNL1       -0.2222
      9 C          62.7086   88.5967   13.1894 C.ar    1  UNL1        0.2001
     10 N          61.9447   89.0245   11.9714 N.ar    1  UNL1       -0.2075
     11 C          61.7493   88.0664   10.8339 C.ar    1  UNL1        0.1509
     12 C          62.3179   86.6807   10.9143 C.ar    1  UNL1        0.1101
     13 N          62.2868   85.5259    9.9575 N.ar    1  UNL1       -0.3216
     14 C          61.6269   85.5145    8.6105 C.3     1  UNL1        0.1306
     15 N          60.9854   88.4942    9.6159 N.pl3   1  UNL1       -0.2892
     16 C          59.9122   87.6093    9.0546 C.3     1  UNL1        0.1095
     17 C          59.1483   88.0370    7.8366 C.3     1  UNL1        0.0939
     18 N          59.4576   89.3497    7.1799 N.3     1  UNL1       -0.2695
     19 C          60.5308   90.2347    7.7412 C.3     1  UNL1        0.0939
     20 C          61.2947   89.8069    8.9592 C.3     1  UNL1        0.1095
     21 C          58.6937   89.7774    5.9620 C.3     1  UNL1        0.0769
     22 C          58.7423   91.2068    5.5097 C.3     1  UNL1        0.0437
     23 C          59.7708   91.6421    4.5084 C.ar    1  UNL1       -0.0184
     24 C          59.4157   92.6546    3.4603 C.ar    1  UNL1       -0.0018
     25 C          60.4443   93.0898    2.4589 C.ar    1  UNL1        0.0316
     26 C          61.8280   92.5125    2.5057 C.ar    1  UNL1        0.1674
     27 F          62.8565   92.9478    1.5044 F       1  UNL1       -0.2018
     28 C          62.1831   91.5000    3.5539 C.ar    1  UNL1        0.1671
     29 F          63.5667   90.9227    3.6007 F       1  UNL1       -0.2018
     30 C          61.1546   91.0648    4.5552 C.ar    1  UNL1        0.0277
     31 O          64.7998   84.3422   14.1368 O.3     1  UNL1       -0.4639
     32 C          62.7403   83.4788   15.4646 C.3     1  UNL1        0.0473
     33 C          63.8369   84.4851   15.2780 C.3     1  UNL1        0.1678
     34 C          63.9706   85.6344   16.2326 C.3     1  UNL1        0.0473
@<TRIPOS>BOND
     1    32    33    1
     2    33    34    1
     3    33    31    1
     4    31     1    1
     5     1     2   ar
     6     2     3   ar
     7     3     4   ar
     8     4     5   ar
     9     5     6   ar
    10     6     7   ar
    11     7     8   ar
    12     8     9   ar
    13     9    10   ar
    14    10    11   ar
    15    11    15    1
    16    15    16    1
    17    16    17    1
    18    17    18    1
    19    18    21    1
    20    21    22    1
    21    22    23    1
    22    23    24   ar
    23    24    25   ar
    24    25    26   ar
    25    26    27    1
    26    26    28   ar
    27    28    29    1
    28    28    30   ar
    29    18    19    1
    30    19    20    1
    31    11    12   ar
    32    12    13   ar
    33    13    14    1
    34     6     1   ar
    35    12     7   ar
    36    13     5   ar
    37    20    15    1
    38    30    23   ar
