@<TRIPOS>MOLECULE
*****
 33 36 0 0 0
SMALL
GASTEIGER

@<TRIPOS>ATOM
      1 O          61.8298   89.9687    9.6863 O.2     1  UNL1       -0.2670
      2 C          62.6459   89.7766   10.9301 C.ar    1  UNL1        0.2613
      3 C          63.5214   90.8865   11.4315 C.ar    1  UNL1        0.0623
      4 C          64.3376   90.6943   12.6753 C.ar    1  UNL1        0.0240
      5 C          64.2782   89.3923   13.4177 C.ar    1  UNL1        0.0204
      6 C          63.4027   88.2824   12.9162 C.ar    1  UNL1        0.0787
      7 N          62.5865   88.4745   11.6724 N.ar    1  UNL1       -0.2897
      8 C          65.2131   91.8043   13.1768 C.ar    1  UNL1        0.0859
      9 C          65.9940   91.6288   14.4454 C.ar    1  UNL1        0.0399
     10 C          66.8695   92.7387   14.9469 C.ar    1  UNL1        0.1034
     11 N          66.9642   94.0243   14.1797 N.ar    1  UNL1       -0.2123
     12 C          66.1833   94.1998   12.9111 C.ar    1  UNL1        0.2168
     13 N          65.3078   93.0898   12.4096 N.ar    1  UNL1       -0.2138
     14 N          66.2780   95.4852   12.1439 N.pl3   1  UNL1       -0.3045
     15 H          66.1848   96.3461   12.6123 H       1  UNL1        0.1496
     16 C          66.5146   95.4591   10.6629 C.3     1  UNL1        0.0768
     17 C          67.3163   94.3487   10.0510 C.3     1  UNL1        0.0517
     18 C          67.5529   94.3226    8.5700 C.3     1  UNL1        0.1439
     19 O          66.9879   95.4067    7.7009 O.3     1  UNL1       -0.3537
     20 C          66.1862   96.5171    8.3128 C.3     1  UNL1        0.1439
     21 C          65.9496   96.5433    9.7938 C.3     1  UNL1        0.0517
     22 C          61.7110   87.3645   11.1709 C.3     1  UNL1        0.1402
     23 C          62.2879   85.9987   10.9433 C.ar    1  UNL1        0.0030
     24 C          62.7390   85.5943    9.5711 C.ar    1  UNL1       -0.0014
     25 C          63.3159   84.2285    9.3435 C.ar    1  UNL1        0.0134
     26 C          63.4417   83.2672   10.4880 C.ar    1  UNL1        0.0850
     27 CL         64.0186   81.9014   10.2604 Cl      1  UNL1       -0.0799
     28 C          62.9906   83.6716   11.8602 C.ar    1  UNL1        0.1503
     29 F          63.1164   82.7102   13.0048 F       1  UNL1       -0.2033
     30 C          62.4137   85.0374   12.0879 C.ar    1  UNL1        0.0281
     31 C          60.2586   87.6203   10.8971 C.3     1  UNL1        0.1642
     32 O          59.3873   88.2136   11.9643 O.3     1  UNL1       -0.3797
     33 H          59.3058   87.5872   12.7004 H       1  UNL1        0.2105
@<TRIPOS>BOND
     1     1     2    2
     2     2     3   ar
     3     3     4   ar
     4     4     8    1
     5     8     9   ar
     6     9    10   ar
     7    10    11   ar
     8    11    12   ar
     9    12    14    1
    10    14    16    1
    11    16    17    1
    12    17    18    1
    13    18    19    1
    14    19    20    1
    15    20    21    1
    16    12    13   ar
    17     4     5   ar
    18     5     6   ar
    19     6     7   ar
    20     7    22    1
    21    22    31    1
    22    31    32    1
    23    22    23    1
    24    23    24   ar
    25    24    25   ar
    26    25    26   ar
    27    26    27    1
    28    26    28   ar
    29    28    29    1
    30    28    30   ar
    31     7     2   ar
    32    30    23   ar
    33    13     8   ar
    34    21    16    1
    35    14    15    1
    36    32    33    1
@<TRIPOS>MOLECULE
*****
 33 36 0 0 0
SMALL
GASTEIGER

@<TRIPOS>ATOM
      1 O          62.6664   87.0370   12.6283 O.2     1  UNL1       -0.2670
      2 C          62.7405   88.4793   12.2228 C.ar    1  UNL1        0.2613
      3 C          63.8457   89.3491   12.7442 C.ar    1  UNL1        0.0623
      4 C          63.9198   90.7914   12.3387 C.ar    1  UNL1        0.0240
      5 C          62.8888   91.3638   11.4118 C.ar    1  UNL1        0.0204
      6 C          61.7836   90.4939   10.8904 C.ar    1  UNL1        0.0787
      7 N          61.7095   89.0517   11.2959 N.ar    1  UNL1       -0.2897
      8 C          65.0251   91.6612   12.8601 C.ar    1  UNL1        0.0859
      9 C          65.9210   91.1604   13.9540 C.ar    1  UNL1        0.0399
     10 C          67.0262   92.0302   14.4755 C.ar    1  UNL1        0.1034
     11 N          67.2356   93.4008   13.9031 N.ar    1  UNL1       -0.2123
     12 C          66.3397   93.9016   12.8092 C.ar    1  UNL1        0.2168
     13 N          65.2344   93.0318   12.2877 N.ar    1  UNL1       -0.2138
     14 N          66.5490   95.2722   12.2368 N.pl3   1  UNL1       -0.3045
     15 H          66.6806   96.0414   12.8369 H       1  UNL1        0.1496
     16 C          66.5580   95.4706   10.7500 C.3     1  UNL1        0.0768
     17 C          67.3529   94.5474    9.8749 C.3     1  UNL1        0.0517
     18 C          67.3618   94.7459    8.3880 C.3     1  UNL1        0.1439
     19 O          66.5758   95.8675    7.7764 O.3     1  UNL1       -0.3537
     20 C          65.7808   96.7907    8.6515 C.3     1  UNL1        0.1439
     21 C          65.7719   96.5923   10.1383 C.3     1  UNL1        0.0517
     22 C          60.6042   88.1819   10.7744 C.3     1  UNL1        0.1402
     23 C          60.8615   87.2482    9.6291 C.ar    1  UNL1        0.0030
     24 C          59.7803   86.9765    8.6254 C.ar    1  UNL1       -0.0014
     25 C          60.0377   86.0428    7.4800 C.ar    1  UNL1        0.0134
     26 C          61.3761   85.3807    7.3382 C.ar    1  UNL1        0.0850
     27 CL         61.6335   84.4470    6.1929 Cl      1  UNL1       -0.0799
     28 C          62.4573   85.6523    8.3418 C.ar    1  UNL1        0.1503
     29 F          63.7958   84.9903    8.2000 F       1  UNL1       -0.2033
     30 C          62.2000   86.5861    9.4873 C.ar    1  UNL1        0.0281
     31 C          59.2416   88.2458   11.3984 C.3     1  UNL1        0.1642
     32 O          59.0961   88.6099   12.8462 O.3     1  UNL1       -0.3797
     33 H          59.4938   87.9164   13.3956 H       1  UNL1        0.2105
@<TRIPOS>BOND
     1     1     2    2
     2     2     3   ar
     3     3     4   ar
     4     4     8    1
     5     8     9   ar
     6     9    10   ar
     7    10    11   ar
     8    11    12   ar
     9    12    14    1
    10    14    16    1
    11    16    17    1
    12    17    18    1
    13    18    19    1
    14    19    20    1
    15    20    21    1
    16    12    13   ar
    17     4     5   ar
    18     5     6   ar
    19     6     7   ar
    20     7    22    1
    21    22    31    1
    22    31    32    1
    23    22    23    1
    24    23    24   ar
    25    24    25   ar
    26    25    26   ar
    27    26    27    1
    28    26    28   ar
    29    28    29    1
    30    28    30   ar
    31     7     2   ar
    32    30    23   ar
    33    13     8   ar
    34    21    16    1
    35    14    15    1
    36    32    33    1
@<TRIPOS>MOLECULE
*****
 33 36 0 0 0
SMALL
GASTEIGER

@<TRIPOS>ATOM
      1 O          63.4423   86.9552   13.5875 O.2     1  UNL1       -0.2670
      2 C          63.4622   88.2693   12.8643 C.ar    1  UNL1        0.2613
      3 C          64.3429   89.3809   13.3528 C.ar    1  UNL1        0.0623
      4 C          64.3628   90.6949   12.6296 C.ar    1  UNL1        0.0240
      5 C          63.5019   90.8973   11.4181 C.ar    1  UNL1        0.0204
      6 C          62.6212   89.7857   10.9296 C.ar    1  UNL1        0.0787
      7 N          62.6013   88.4717   11.6528 N.ar    1  UNL1       -0.2897
      8 C          65.2435   91.8066   13.1181 C.ar    1  UNL1        0.0859
      9 C          66.0690   91.6203   14.3566 C.ar    1  UNL1        0.0399
     10 C          66.9497   92.7319   14.8451 C.ar    1  UNL1        0.1034
     11 N          67.0050   94.0298   14.0950 N.ar    1  UNL1       -0.2123
     12 C          66.1796   94.2160   12.8565 C.ar    1  UNL1        0.2168
     13 N          65.2988   93.1044   12.3681 N.ar    1  UNL1       -0.2138
     14 N          66.2349   95.5138   12.1065 N.pl3   1  UNL1       -0.3045
     15 H          65.9582   96.3494   12.5475 H       1  UNL1        0.1496
     16 C          66.7116   95.5385   10.6845 C.3     1  UNL1        0.0768
     17 C          66.7365   96.8313    9.9241 C.3     1  UNL1        0.0517
     18 C          67.2133   96.8559    8.5021 C.3     1  UNL1        0.1439
     19 O          67.6652   95.5878    7.8405 O.3     1  UNL1       -0.3537
     20 C          67.6403   94.2951    8.6009 C.3     1  UNL1        0.1439
     21 C          67.1635   94.2704   10.0229 C.3     1  UNL1        0.0517
     22 C          61.7206   87.3600   11.1643 C.3     1  UNL1        0.1402
     23 C          62.3013   86.0014   10.9060 C.ar    1  UNL1        0.0030
     24 C          62.8316   85.6587    9.5453 C.ar    1  UNL1       -0.0014
     25 C          63.4123   84.3001    9.2869 C.ar    1  UNL1        0.0134
     26 C          63.4628   83.2840   10.3892 C.ar    1  UNL1        0.0850
     27 CL         64.0436   81.9254   10.1309 Cl      1  UNL1       -0.0799
     28 C          62.9326   83.6266   11.7499 C.ar    1  UNL1        0.1503
     29 F          62.9830   82.6105   12.8522 F       1  UNL1       -0.2033
     30 C          62.3518   84.9853   12.0083 C.ar    1  UNL1        0.0281
     31 C          60.2590   87.6071   10.9342 C.3     1  UNL1        0.1642
     32 O          59.4346   88.2724   11.9961 O.3     1  UNL1       -0.3797
     33 H          59.3811   87.6946   12.7733 H       1  UNL1        0.2105
@<TRIPOS>BOND
     1     1     2    2
     2     2     3   ar
     3     3     4   ar
     4     4     8    1
     5     8     9   ar
     6     9    10   ar
     7    10    11   ar
     8    11    12   ar
     9    12    14    1
    10    14    16    1
    11    16    17    1
    12    17    18    1
    13    18    19    1
    14    19    20    1
    15    20    21    1
    16    12    13   ar
    17     4     5   ar
    18     5     6   ar
    19     6     7   ar
    20     7    22    1
    21    22    31    1
    22    31    32    1
    23    22    23    1
    24    23    24   ar
    25    24    25   ar
    26    25    26   ar
    27    26    27    1
    28    26    28   ar
    29    28    29    1
    30    28    30   ar
    31     7     2   ar
    32    30    23   ar
    33    13     8   ar
    34    21    16    1
    35    14    15    1
    36    32    33    1
@<TRIPOS>MOLECULE
*****
 33 36 0 0 0
SMALL
GASTEIGER

@<TRIPOS>ATOM
      1 O          66.2064   91.3147   14.7203 O.2     1  UNL1       -0.2670
      2 C          65.3301   91.1549   13.5134 C.ar    1  UNL1        0.2613
      3 C          64.5259   89.9020   13.3310 C.ar    1  UNL1        0.0623
      4 C          63.6497   89.7422   12.1241 C.ar    1  UNL1        0.0240
      5 C          63.5777   90.8354   11.0995 C.ar    1  UNL1        0.0204
      6 C          64.3819   92.0883   11.2819 C.ar    1  UNL1        0.0787
      7 N          65.2581   92.2481   12.4889 N.ar    1  UNL1       -0.2897
      8 C          62.8455   88.4892   11.9417 C.ar    1  UNL1        0.0859
      9 C          61.6845   88.4747   10.9920 C.ar    1  UNL1        0.0399
     10 C          60.8803   87.2217   10.8096 C.ar    1  UNL1        0.1034
     11 N          61.2370   85.9832   11.5770 N.ar    1  UNL1       -0.2123
     12 C          62.3980   85.9976   12.5267 C.ar    1  UNL1        0.2168
     13 N          63.2022   87.2507   12.7091 N.ar    1  UNL1       -0.2138
     14 N          62.7547   84.7592   13.2940 N.pl3   1  UNL1       -0.3045
     15 H          62.8936   84.8061   14.2676 H       1  UNL1        0.1496
     16 C          62.8999   83.4491   12.5781 C.3     1  UNL1        0.0768
     17 C          62.3970   82.1871   13.2140 C.3     1  UNL1        0.0517
     18 C          62.5422   80.8770   12.4980 C.3     1  UNL1        0.1439
     19 O          63.1903   80.8289   11.1461 O.3     1  UNL1       -0.3537
     20 C          63.6932   82.0909   10.5102 C.3     1  UNL1        0.1439
     21 C          63.5480   83.4010   11.2261 C.3     1  UNL1        0.0517
     22 C          66.0623   93.5012   12.6712 C.3     1  UNL1        0.1402
     23 C          66.4246   94.3397   11.4814 C.ar    1  UNL1        0.0030
     24 C          66.1735   95.8184   11.5015 C.ar    1  UNL1       -0.0014
     25 C          66.5357   96.6569   10.3117 C.ar    1  UNL1        0.0134
     26 C          67.1491   96.0167    9.1018 C.ar    1  UNL1        0.0850
     27 CL         67.5114   96.8552    7.9120 Cl      1  UNL1       -0.0799
     28 C          67.4002   94.5381    9.0817 C.ar    1  UNL1        0.1503
     29 F          68.0136   93.8979    7.8717 F       1  UNL1       -0.2033
     30 C          67.0380   93.6995   10.2715 C.ar    1  UNL1        0.0281
     31 C          66.5043   93.9156   14.0434 C.3     1  UNL1        0.1642
     32 O          67.8400   93.4765   14.5657 O.3     1  UNL1       -0.3797
     33 H          67.8422   92.5130   14.6786 H       1  UNL1        0.2105
@<TRIPOS>BOND
     1     1     2    2
     2     2     3   ar
     3     3     4   ar
     4     4     8    1
     5     8     9   ar
     6     9    10   ar
     7    10    11   ar
     8    11    12   ar
     9    12    14    1
    10    14    16    1
    11    16    17    1
    12    17    18    1
    13    18    19    1
    14    19    20    1
    15    20    21    1
    16    12    13   ar
    17     4     5   ar
    18     5     6   ar
    19     6     7   ar
    20     7    22    1
    21    22    31    1
    22    31    32    1
    23    22    23    1
    24    23    24   ar
    25    24    25   ar
    26    25    26   ar
    27    26    27    1
    28    26    28   ar
    29    28    29    1
    30    28    30   ar
    31     7     2   ar
    32    30    23   ar
    33    13     8   ar
    34    21    16    1
    35    14    15    1
    36    32    33    1
@<TRIPOS>MOLECULE
*****
 33 36 0 0 0
SMALL
GASTEIGER

@<TRIPOS>ATOM
      1 O          61.8638   89.1647    9.9154 O.2     1  UNL1       -0.2670
      2 C          62.6649   89.0944   11.1817 C.ar    1  UNL1        0.2613
      3 C          63.4041   90.3049   11.6697 C.ar    1  UNL1        0.0623
      4 C          64.2052   90.2345   12.9359 C.ar    1  UNL1        0.0240
      5 C          64.2670   88.9537   13.7141 C.ar    1  UNL1        0.0204
      6 C          63.5278   87.7432   13.2261 C.ar    1  UNL1        0.0787
      7 N          62.7267   87.8136   11.9599 N.ar    1  UNL1       -0.2897
      8 C          64.9445   91.4451   13.4239 C.ar    1  UNL1        0.0859
      9 C          65.4363   91.5033   14.8398 C.ar    1  UNL1        0.0399
     10 C          66.1755   92.7138   15.3278 C.ar    1  UNL1        0.1034
     11 N          66.4231   93.8661   14.3999 N.ar    1  UNL1       -0.2123
     12 C          65.9313   93.8079   12.9840 C.ar    1  UNL1        0.2168
     13 N          65.1920   92.5973   12.4960 N.ar    1  UNL1       -0.2138
     14 N          66.1788   94.9602   12.0562 N.pl3   1  UNL1       -0.3045
     15 H          65.9697   95.8780   12.3444 H       1  UNL1        0.1496
     16 C          66.7448   94.7140   10.6891 C.3     1  UNL1        0.0768
     17 C          66.5844   95.7473    9.6136 C.3     1  UNL1        0.0517
     18 C          67.1504   95.5010    8.2465 C.3     1  UNL1        0.1439
     19 O          67.8769   94.2215    7.9548 O.3     1  UNL1       -0.3537
     20 C          68.0373   93.1882    9.0303 C.3     1  UNL1        0.1439
     21 C          67.4713   93.4344   10.3974 C.3     1  UNL1        0.0517
     22 C          61.9874   86.6030   11.4718 C.3     1  UNL1        0.1402
     23 C          62.4672   85.2311   11.8428 C.ar    1  UNL1        0.0030
     24 C          62.3168   84.7395   13.2520 C.ar    1  UNL1       -0.0014
     25 C          62.7966   83.3676   13.6229 C.ar    1  UNL1        0.0134
     26 C          63.4268   82.4873   12.5847 C.ar    1  UNL1        0.0850
     27 CL         63.9066   81.1154   12.9557 Cl      1  UNL1       -0.0799
     28 C          63.5772   82.9788   11.1756 C.ar    1  UNL1        0.1503
     29 F          64.2074   82.0985   10.1374 F       1  UNL1       -0.2033
     30 C          63.0974   84.3508   10.8046 C.ar    1  UNL1        0.0281
     31 C          60.7683   86.7644   10.6129 C.3     1  UNL1        0.1642
     32 O          60.8632   86.5595    9.1300 O.3     1  UNL1       -0.3797
     33 H          61.4263   87.2484    8.7438 H       1  UNL1        0.2105
@<TRIPOS>BOND
     1     1     2    2
     2     2     3   ar
     3     3     4   ar
     4     4     8    1
     5     8     9   ar
     6     9    10   ar
     7    10    11   ar
     8    11    12   ar
     9    12    14    1
    10    14    16    1
    11    16    17    1
    12    17    18    1
    13    18    19    1
    14    19    20    1
    15    20    21    1
    16    12    13   ar
    17     4     5   ar
    18     5     6   ar
    19     6     7   ar
    20     7    22    1
    21    22    31    1
    22    31    32    1
    23    22    23    1
    24    23    24   ar
    25    24    25   ar
    26    25    26   ar
    27    26    27    1
    28    26    28   ar
    29    28    29    1
    30    28    30   ar
    31     7     2   ar
    32    30    23   ar
    33    13     8   ar
    34    21    16    1
    35    14    15    1
    36    32    33    1
@<TRIPOS>MOLECULE
*****
 33 36 0 0 0
SMALL
GASTEIGER

@<TRIPOS>ATOM
      1 O          64.2980   85.1660   14.5703 O.2     1  UNL1       -0.2670
      2 C          63.9764   86.4838   13.9300 C.ar    1  UNL1        0.2613
      3 C          64.4286   87.7608   14.5741 C.ar    1  UNL1        0.0623
      4 C          64.1069   89.0786   13.9338 C.ar    1  UNL1        0.0240
      5 C          63.3331   89.1194   12.6495 C.ar    1  UNL1        0.0204
      6 C          62.8810   87.8424   12.0054 C.ar    1  UNL1        0.0787
      7 N          63.2026   86.5246   12.6457 N.ar    1  UNL1       -0.2897
      8 C          64.5591   90.3556   14.5780 C.ar    1  UNL1        0.0859
      9 C          64.0347   90.7404   15.9296 C.ar    1  UNL1        0.0399
     10 C          64.4869   92.0174   16.5738 C.ar    1  UNL1        0.1034
     11 N          65.4634   92.9095   15.8663 N.ar    1  UNL1       -0.2123
     12 C          65.9878   92.5247   14.5146 C.ar    1  UNL1        0.2168
     13 N          65.5356   91.2477   13.8705 N.ar    1  UNL1       -0.2138
     14 N          66.9643   93.4167   13.8071 N.pl3   1  UNL1       -0.3045
     15 H          67.6758   93.8689   14.3156 H       1  UNL1        0.1496
     16 C          66.8568   93.6198   12.3249 C.3     1  UNL1        0.0768
     17 C          66.2268   94.8684   11.7827 C.3     1  UNL1        0.0517
     18 C          66.1193   95.0715   10.3003 C.3     1  UNL1        0.1439
     19 O          66.6419   94.0260    9.3602 O.3     1  UNL1       -0.3537
     20 C          67.2719   92.7774    9.9025 C.3     1  UNL1        0.1439
     21 C          67.3794   92.5743   11.3847 C.3     1  UNL1        0.0517
     22 C          62.7504   85.2476   12.0015 C.3     1  UNL1        0.1402
     23 C          62.4410   85.2164   10.5342 C.ar    1  UNL1        0.0030
     24 C          63.3924   84.5560    9.5809 C.ar    1  UNL1       -0.0014
     25 C          63.0830   84.5248    8.1135 C.ar    1  UNL1        0.0134
     26 C          61.8220   85.1539    7.5994 C.ar    1  UNL1        0.0850
     27 CL         61.5126   85.1226    6.1320 Cl      1  UNL1       -0.0799
     28 C          60.8706   85.8142    8.5526 C.ar    1  UNL1        0.1503
     29 F          59.6097   86.4433    8.0384 F       1  UNL1       -0.2033
     30 C          61.1800   85.8455   10.0200 C.ar    1  UNL1        0.0281
     31 C          62.6078   84.0019   12.8248 C.3     1  UNL1        0.1642
     32 O          63.6935   82.9670   12.8136 O.3     1  UNL1       -0.3797
     33 H          63.7540   82.5715   11.9299 H       1  UNL1        0.2105
@<TRIPOS>BOND
     1     1     2    2
     2     2     3   ar
     3     3     4   ar
     4     4     8    1
     5     8     9   ar
     6     9    10   ar
     7    10    11   ar
     8    11    12   ar
     9    12    14    1
    10    14    16    1
    11    16    17    1
    12    17    18    1
    13    18    19    1
    14    19    20    1
    15    20    21    1
    16    12    13   ar
    17     4     5   ar
    18     5     6   ar
    19     6     7   ar
    20     7    22    1
    21    22    31    1
    22    31    32    1
    23    22    23    1
    24    23    24   ar
    25    24    25   ar
    26    25    26   ar
    27    26    27    1
    28    26    28   ar
    29    28    29    1
    30    28    30   ar
    31     7     2   ar
    32    30    23   ar
    33    13     8   ar
    34    21    16    1
    35    14    15    1
    36    32    33    1
@<TRIPOS>MOLECULE
*****
 33 36 0 0 0
SMALL
GASTEIGER

@<TRIPOS>ATOM
      1 O          61.9620   88.2799   10.2133 O.2     1  UNL1       -0.2670
      2 C          62.7049   88.0964   11.5034 C.ar    1  UNL1        0.2613
      3 C          63.1322   89.2937   12.2996 C.ar    1  UNL1        0.0623
      4 C          63.8751   89.1102   13.5897 C.ar    1  UNL1        0.0240
      5 C          64.1907   87.7295   14.0836 C.ar    1  UNL1        0.0204
      6 C          63.7634   86.5323   13.2875 C.ar    1  UNL1        0.0787
      7 N          63.0205   86.7157   11.9973 N.ar    1  UNL1       -0.2897
      8 C          64.3025   90.3076   14.3859 C.ar    1  UNL1        0.0859
      9 C          63.8160   90.4846   15.7937 C.ar    1  UNL1        0.0399
     10 C          64.2433   91.6819   16.5899 C.ar    1  UNL1        0.1034
     11 N          65.1571   92.7022   15.9783 N.ar    1  UNL1       -0.2123
     12 C          65.6436   92.5251   14.5704 C.ar    1  UNL1        0.2168
     13 N          65.2162   91.3278   13.7742 N.ar    1  UNL1       -0.2138
     14 N          66.5573   93.5453   13.9588 N.pl3   1  UNL1       -0.3045
     15 H          67.1228   94.1083   14.5354 H       1  UNL1        0.1496
     16 C          66.6096   93.7077   12.4685 C.3     1  UNL1        0.0768
     17 C          67.0990   92.5808   11.6080 C.3     1  UNL1        0.0517
     18 C          67.1512   92.7432   10.1177 C.3     1  UNL1        0.1439
     19 O          66.7141   94.0325    9.4880 O.3     1  UNL1       -0.3537
     20 C          66.2247   95.1594   10.3485 C.3     1  UNL1        0.1439
     21 C          66.1724   94.9970   11.8388 C.3     1  UNL1        0.0517
     22 C          62.5931   85.5184   11.2011 C.3     1  UNL1        0.1402
     23 C          62.6329   84.1528   11.8204 C.ar    1  UNL1        0.0030
     24 C          62.9298   82.9525   10.9711 C.ar    1  UNL1       -0.0014
     25 C          62.9696   81.5869   11.5904 C.ar    1  UNL1        0.0134
     26 C          62.7125   81.4215   13.0589 C.ar    1  UNL1        0.0850
     27 CL         62.7523   80.0559   13.6781 Cl      1  UNL1       -0.0799
     28 C          62.4157   82.6217   13.9082 C.ar    1  UNL1        0.1503
     29 F          62.1586   82.4564   15.3767 F       1  UNL1       -0.2033
     30 C          62.3759   83.9874   13.2889 C.ar    1  UNL1        0.0281
     31 C          62.1260   85.6868    9.7857 C.3     1  UNL1        0.1642
     32 O          60.6807   85.9701    9.5016 O.3     1  UNL1       -0.3797
     33 H          60.1443   85.2041    9.7595 H       1  UNL1        0.2105
@<TRIPOS>BOND
     1     1     2    2
     2     2     3   ar
     3     3     4   ar
     4     4     8    1
     5     8     9   ar
     6     9    10   ar
     7    10    11   ar
     8    11    12   ar
     9    12    14    1
    10    14    16    1
    11    16    17    1
    12    17    18    1
    13    18    19    1
    14    19    20    1
    15    20    21    1
    16    12    13   ar
    17     4     5   ar
    18     5     6   ar
    19     6     7   ar
    20     7    22    1
    21    22    31    1
    22    31    32    1
    23    22    23    1
    24    23    24   ar
    25    24    25   ar
    26    25    26   ar
    27    26    27    1
    28    26    28   ar
    29    28    29    1
    30    28    30   ar
    31     7     2   ar
    32    30    23   ar
    33    13     8   ar
    34    21    16    1
    35    14    15    1
    36    32    33    1
@<TRIPOS>MOLECULE
*****
 33 36 0 0 0
SMALL
GASTEIGER

@<TRIPOS>ATOM
      1 O          64.1078   87.7380   14.1990 O.2     1  UNL1       -0.2670
      2 C          63.4874   88.5738   13.1190 C.ar    1  UNL1        0.2613
      3 C          62.8270   87.9131   11.9454 C.ar    1  UNL1        0.0623
      4 C          62.2065   88.7490   10.8654 C.ar    1  UNL1        0.0240
      5 C          62.2465   90.2455   10.9589 C.ar    1  UNL1        0.0204
      6 C          62.9069   90.9062   12.1325 C.ar    1  UNL1        0.0787
      7 N          63.5273   90.0704   13.2125 N.ar    1  UNL1       -0.2897
      8 C          61.5461   88.0882    9.6918 C.ar    1  UNL1        0.0859
      9 C          61.9984   86.7301    9.2433 C.ar    1  UNL1        0.0399
     10 C          61.3381   86.0693    8.0697 C.ar    1  UNL1        0.1034
     11 N          60.2254   86.7666    7.3446 N.ar    1  UNL1       -0.2123
     12 C          59.7731   88.1247    7.7931 C.ar    1  UNL1        0.2168
     13 N          60.4335   88.7854    8.9667 N.ar    1  UNL1       -0.2138
     14 N          58.6604   88.8219    7.0680 N.pl3   1  UNL1       -0.3045
     15 H          57.7269   88.5475    7.2181 H       1  UNL1        0.1496
     16 C          58.9700   89.9374    6.1141 C.3     1  UNL1        0.0768
     17 C          57.8629   90.7987    5.5825 C.3     1  UNL1        0.0517
     18 C          58.1726   91.9141    4.6286 C.3     1  UNL1        0.1439
     19 O          59.5893   92.1683    4.2063 O.3     1  UNL1       -0.3537
     20 C          60.6964   91.3070    4.7379 C.3     1  UNL1        0.1439
     21 C          60.3868   90.1916    5.6918 C.3     1  UNL1        0.0517
     22 C          64.1877   90.7311   14.3861 C.3     1  UNL1        0.1402
     23 C          65.6038   91.2134   14.2763 C.ar    1  UNL1        0.0030
     24 C          66.2112   91.4554   12.9263 C.ar    1  UNL1       -0.0014
     25 C          67.6272   91.9377   12.8165 C.ar    1  UNL1        0.0134
     26 C          68.4360   92.1781   14.0567 C.ar    1  UNL1        0.0850
     27 CL         69.8520   92.6604   13.9469 Cl      1  UNL1       -0.0799
     28 C          67.8287   91.9361   15.4067 C.ar    1  UNL1        0.1503
     29 F          68.6374   92.1764   16.6469 F       1  UNL1       -0.2033
     30 C          66.4125   91.4538   15.5166 C.ar    1  UNL1        0.0281
     31 C          63.4320   90.9096   15.6695 C.3     1  UNL1        0.1642
     32 O          62.6620   89.7618   16.2523 O.3     1  UNL1       -0.3797
     33 H          61.9274   89.5323   15.6619 H       1  UNL1        0.2105
@<TRIPOS>BOND
     1     1     2    2
     2     2     3   ar
     3     3     4   ar
     4     4     8    1
     5     8     9   ar
     6     9    10   ar
     7    10    11   ar
     8    11    12   ar
     9    12    14    1
    10    14    16    1
    11    16    17    1
    12    17    18    1
    13    18    19    1
    14    19    20    1
    15    20    21    1
    16    12    13   ar
    17     4     5   ar
    18     5     6   ar
    19     6     7   ar
    20     7    22    1
    21    22    31    1
    22    31    32    1
    23    22    23    1
    24    23    24   ar
    25    24    25   ar
    26    25    26   ar
    27    26    27    1
    28    26    28   ar
    29    28    29    1
    30    28    30   ar
    31     7     2   ar
    32    30    23   ar
    33    13     8   ar
    34    21    16    1
    35    14    15    1
    36    32    33    1
@<TRIPOS>MOLECULE
*****
 33 36 0 0 0
SMALL
GASTEIGER

@<TRIPOS>ATOM
      1 O          64.5970   86.0323   15.4068 O.2     1  UNL1       -0.2670
      2 C          63.7999   86.3340   14.1725 C.ar    1  UNL1        0.2613
      3 C          63.9210   87.6744   13.5104 C.ar    1  UNL1        0.0623
      4 C          63.1239   87.9760   12.2760 C.ar    1  UNL1        0.0240
      5 C          62.2055   86.9372   11.7038 C.ar    1  UNL1        0.0204
      6 C          62.0844   85.5968   12.3659 C.ar    1  UNL1        0.0787
      7 N          62.8816   85.2951   13.6003 N.ar    1  UNL1       -0.2897
      8 C          63.2450   89.3166   11.6139 C.ar    1  UNL1        0.0859
      9 C          62.4273   89.6280   10.3956 C.ar    1  UNL1        0.0399
     10 C          62.5485   90.9684    9.7335 C.ar    1  UNL1        0.1034
     11 N          63.4874   91.9976   10.2897 N.ar    1  UNL1       -0.2123
     12 C          64.3051   91.6862   11.5081 C.ar    1  UNL1        0.2168
     13 N          64.1839   90.3457   12.1702 N.ar    1  UNL1       -0.2138
     14 N          65.2440   92.7153   12.0643 N.pl3   1  UNL1       -0.3045
     15 H          65.2024   92.9551   13.0182 H       1  UNL1        0.1496
     16 C          66.2461   93.3791   11.1671 C.3     1  UNL1        0.0768
     17 C          67.2772   92.5546   10.4549 C.3     1  UNL1        0.0517
     18 C          68.2794   93.2184    9.5576 C.3     1  UNL1        0.1439
     19 O          68.2505   94.7067    9.3726 O.3     1  UNL1       -0.3537
     20 C          67.2195   95.5311   10.0848 C.3     1  UNL1        0.1439
     21 C          66.2173   94.8674   10.9820 C.3     1  UNL1        0.0517
     22 C          62.7604   83.9546   14.2624 C.3     1  UNL1        0.1402
     23 C          62.7693   82.7048   13.4329 C.ar    1  UNL1        0.0030
     24 C          62.1908   81.4350   13.9835 C.ar    1  UNL1       -0.0014
     25 C          62.1998   80.1853   13.1540 C.ar    1  UNL1        0.0134
     26 C          62.7872   80.2053   11.7740 C.ar    1  UNL1        0.0850
     27 CL         62.7961   78.9556   10.9445 Cl      1  UNL1       -0.0799
     28 C          63.3656   81.4750   11.2234 C.ar    1  UNL1        0.1503
     29 F          63.9530   81.4950    9.8433 F       1  UNL1       -0.2033
     30 C          63.3567   82.7248   12.0528 C.ar    1  UNL1        0.0281
     31 C          62.6302   83.8638   15.7540 C.3     1  UNL1        0.1642
     32 O          62.0095   84.9924   16.5227 O.3     1  UNL1       -0.3797
     33 H          62.5747   85.7780   16.4566 H       1  UNL1        0.2105
@<TRIPOS>BOND
     1     1     2    2
     2     2     3   ar
     3     3     4   ar
     4     4     8    1
     5     8     9   ar
     6     9    10   ar
     7    10    11   ar
     8    11    12   ar
     9    12    14    1
    10    14    16    1
    11    16    17    1
    12    17    18    1
    13    18    19    1
    14    19    20    1
    15    20    21    1
    16    12    13   ar
    17     4     5   ar
    18     5     6   ar
    19     6     7   ar
    20     7    22    1
    21    22    31    1
    22    31    32    1
    23    22    23    1
    24    23    24   ar
    25    24    25   ar
    26    25    26   ar
    27    26    27    1
    28    26    28   ar
    29    28    29    1
    30    28    30   ar
    31     7     2   ar
    32    30    23   ar
    33    13     8   ar
    34    21    16    1
    35    14    15    1
    36    32    33    1
