@<TRIPOS>MOLECULE
*****
 29 33 0 0 0
SMALL
GASTEIGER

@<TRIPOS>ATOM
      1 O          64.6932   86.4938   15.2103 O.2     1  UNL1       -0.2665
      2 C          64.1332   87.4378   14.1880 C.ar    1  UNL1        0.2676
      3 C          64.2999   88.9182   14.3632 C.ar    1  UNL1        0.0980
      4 C          63.7399   89.8622   13.3409 C.ar    1  UNL1        0.1453
      5 C          63.0132   89.3260   12.1434 C.ar    1  UNL1        0.0561
      6 C          62.8465   87.8456   11.9681 C.ar    1  UNL1        0.0857
      7 N          63.4065   86.9016   12.9904 N.ar    1  UNL1       -0.2763
      8 C          63.2398   85.4212   12.8152 C.2     1  UNL1        0.0502
      9 C          62.8762   84.5630   13.9905 C.2     1  UNL1        0.0136
     10 C          62.7095   83.0826   13.8153 C.2     1  UNL1        0.0021
     11 C          62.9065   82.4604   12.4647 C.2     1  UNL1        0.0124
     12 C          62.8107   81.0407   11.9901 C.2     1  UNL1        0.0084
     13 C          63.1152   81.0213   10.5215 C.2     1  UNL1        0.0573
     14 N          63.3991   82.4291   10.0884 N.2     1  UNL1       -0.2538
     15 C          63.2701   83.3185   11.2894 C.2     1  UNL1        0.0642
     16 C          63.4368   84.7989   11.4647 C.3     1  UNL1        0.0899
     17 C          63.0945   79.7244    9.7682 C.3     1  UNL1        0.0626
     18 C          62.7694   78.4467   10.4836 C.3     1  UNL1        0.0752
     19 N          62.4650   78.4660   11.9523 N.3     1  UNL1       -0.2934
     20 C          62.4856   79.7630   12.7055 C.3     1  UNL1        0.0969
     21 H          63.1453   77.8534   12.4021 H       1  UNL1        0.1236
     22 O          63.9066   91.3426   13.5162 O.3     1  UNL1       -0.4704
     23 C          65.1615   92.0169   13.0465 C.3     1  UNL1        0.2320
     24 C          66.3136   92.1982   13.9898 C.ar    1  UNL1        0.0212
     25 C          66.0611   92.5901   15.4155 C.ar    1  UNL1       -0.0007
     26 C          67.2132   92.7715   16.3588 C.ar    1  UNL1       -0.0002
     27 C          68.6178   92.5609   15.8764 C.ar    1  UNL1       -0.0000
     28 C          68.8703   92.1690   14.4507 C.ar    1  UNL1       -0.0002
     29 C          67.7182   91.9876   13.5074 C.ar    1  UNL1       -0.0007
@<TRIPOS>BOND
     1     1     2    2
     2     2     3   ar
     3     3     4   ar
     4     4    22    1
     5    22    23    1
     6    23    24    1
     7    24    25   ar
     8    25    26   ar
     9    26    27   ar
    10    27    28   ar
    11    28    29   ar
    12     4     5   ar
    13     5     6   ar
    14     6     7   ar
    15     7     8    1
    16     8     9    2
    17     9    10    1
    18    10    11    2
    19    11    12    1
    20    12    13    2
    21    13    14    1
    22    14    15    2
    23    15    16    1
    24    13    17    1
    25    17    18    1
    26    18    19    1
    27    19    20    1
    28     7     2   ar
    29    16     8    1
    30    29    24   ar
    31    15    11    1
    32    20    12    1
    33    19    21    1
@<TRIPOS>MOLECULE
*****
 29 33 0 0 0
SMALL
GASTEIGER

@<TRIPOS>ATOM
      1 O          62.6081   88.7059   11.4766 O.2     1  UNL1       -0.2665
      2 C          63.5023   89.4263   12.4417 C.ar    1  UNL1        0.2676
      3 C          63.7744   90.8905   12.2623 C.ar    1  UNL1        0.0980
      4 C          64.6686   91.6109   13.2274 C.ar    1  UNL1        0.1453
      5 C          65.2906   90.8673   14.3719 C.ar    1  UNL1        0.0561
      6 C          65.0185   89.4031   14.5513 C.ar    1  UNL1        0.0857
      7 N          64.1243   88.6827   13.5862 N.ar    1  UNL1       -0.2763
      8 C          63.8522   87.2185   13.7656 C.2     1  UNL1        0.0502
      9 C          63.9771   86.5933   15.1233 C.2     1  UNL1        0.0136
     10 C          63.7049   85.1291   15.3027 C.2     1  UNL1        0.0021
     11 C          63.3079   84.2901   14.1244 C.2     1  UNL1        0.0124
     12 C          62.9791   82.8323   13.9954 C.2     1  UNL1        0.0084
     13 C          62.6509   82.5565   12.5580 C.2     1  UNL1        0.0573
     14 N          62.7769   83.8439   11.7986 N.2     1  UNL1       -0.2538
     15 C          63.1830   84.9154   12.7666 C.2     1  UNL1        0.0642
     16 C          63.4551   86.3796   12.5872 C.3     1  UNL1        0.0899
     17 C          62.2797   81.1688   12.1263 C.3     1  UNL1        0.0626
     18 C          62.2367   80.0569   13.1321 C.3     1  UNL1        0.0752
     19 N          62.5649   80.3326   14.5696 N.3     1  UNL1       -0.2934
     20 C          62.9360   81.7204   15.0012 C.3     1  UNL1        0.0969
     21 H          63.3497   79.7285   14.8135 H       1  UNL1        0.1236
     22 O          64.9407   93.0751   13.0480 O.3     1  UNL1       -0.4704
     23 C          66.3402   93.5525   12.7963 C.3     1  UNL1        0.2320
     24 C          66.9153   93.4932   11.4121 C.ar    1  UNL1        0.0212
     25 C          67.6636   92.2734   10.9625 C.ar    1  UNL1       -0.0007
     26 C          68.2387   92.2141    9.5784 C.ar    1  UNL1       -0.0002
     27 C          68.0656   93.3745    8.6439 C.ar    1  UNL1       -0.0000
     28 C          67.3173   94.5943    9.0935 C.ar    1  UNL1       -0.0002
     29 C          66.7422   94.6536   10.4776 C.ar    1  UNL1       -0.0007
@<TRIPOS>BOND
     1     1     2    2
     2     2     3   ar
     3     3     4   ar
     4     4    22    1
     5    22    23    1
     6    23    24    1
     7    24    25   ar
     8    25    26   ar
     9    26    27   ar
    10    27    28   ar
    11    28    29   ar
    12     4     5   ar
    13     5     6   ar
    14     6     7   ar
    15     7     8    1
    16     8     9    2
    17     9    10    1
    18    10    11    2
    19    11    12    1
    20    12    13    2
    21    13    14    1
    22    14    15    2
    23    15    16    1
    24    13    17    1
    25    17    18    1
    26    18    19    1
    27    19    20    1
    28     7     2   ar
    29    16     8    1
    30    29    24   ar
    31    15    11    1
    32    20    12    1
    33    19    21    1
@<TRIPOS>MOLECULE
*****
 29 33 0 0 0
SMALL
GASTEIGER

@<TRIPOS>ATOM
      1 O          62.2340   87.3505   10.8735 O.2     1  UNL1       -0.2665
      2 C          62.9457   87.8850   12.0809 C.ar    1  UNL1        0.2676
      3 C          63.1240   89.3644   12.2526 C.ar    1  UNL1        0.0980
      4 C          63.8358   89.8989   13.4600 C.ar    1  UNL1        0.1453
      5 C          64.3691   88.9541   14.4956 C.ar    1  UNL1        0.0561
      6 C          64.1908   87.4746   14.3239 C.ar    1  UNL1        0.0857
      7 N          63.4791   86.9401   13.1165 N.ar    1  UNL1       -0.2763
      8 C          63.3008   85.4607   12.9448 C.2     1  UNL1        0.0502
      9 C          62.9390   84.6070   14.1239 C.2     1  UNL1        0.0136
     10 C          62.7607   83.1275   13.9522 C.2     1  UNL1        0.0021
     11 C          62.9442   82.5018   12.6014 C.2     1  UNL1        0.0124
     12 C          62.8352   81.0820   12.1297 C.2     1  UNL1        0.0084
     13 C          63.1296   81.0582   10.6591 C.2     1  UNL1        0.0573
     14 N          63.4206   82.4633   10.2219 N.2     1  UNL1       -0.2538
     15 C          63.3060   83.3555   11.4223 C.2     1  UNL1        0.0642
     16 C          63.4843   84.8349   11.5940 C.3     1  UNL1        0.0899
     17 C          63.0948   79.7603    9.9081 C.3     1  UNL1        0.0626
     18 C          62.7655   78.4861   10.6278 C.3     1  UNL1        0.0752
     19 N          62.4710   78.5099   12.0984 N.3     1  UNL1       -0.2934
     20 C          62.5059   79.8078   12.8494 C.3     1  UNL1        0.0969
     21 H          63.1500   77.8932   12.5446 H       1  UNL1        0.1236
     22 O          64.0141   91.3784   13.6317 O.3     1  UNL1       -0.4704
     23 C          65.2664   92.0445   13.1439 C.3     1  UNL1        0.2320
     24 C          66.4350   92.2139   14.0690 C.ar    1  UNL1        0.0212
     25 C          67.8327   92.0529   13.5490 C.ar    1  UNL1       -0.0007
     26 C          69.0012   92.2223   14.4741 C.ar    1  UNL1       -0.0002
     27 C          68.7721   92.5528   15.9192 C.ar    1  UNL1       -0.0000
     28 C          67.3744   92.7138   16.4392 C.ar    1  UNL1       -0.0002
     29 C          66.2058   92.5443   15.5141 C.ar    1  UNL1       -0.0007
@<TRIPOS>BOND
     1     1     2    2
     2     2     3   ar
     3     3     4   ar
     4     4    22    1
     5    22    23    1
     6    23    24    1
     7    24    25   ar
     8    25    26   ar
     9    26    27   ar
    10    27    28   ar
    11    28    29   ar
    12     4     5   ar
    13     5     6   ar
    14     6     7   ar
    15     7     8    1
    16     8     9    2
    17     9    10    1
    18    10    11    2
    19    11    12    1
    20    12    13    2
    21    13    14    1
    22    14    15    2
    23    15    16    1
    24    13    17    1
    25    17    18    1
    26    18    19    1
    27    19    20    1
    28     7     2   ar
    29    16     8    1
    30    29    24   ar
    31    15    11    1
    32    20    12    1
    33    19    21    1
@<TRIPOS>MOLECULE
*****
 29 33 0 0 0
SMALL
GASTEIGER

@<TRIPOS>ATOM
      1 O          62.8418   87.3747   12.3064 O.2     1  UNL1       -0.2665
      2 C          61.9191   88.0068   11.3069 C.ar    1  UNL1        0.2676
      3 C          60.8625   87.1812   10.6346 C.ar    1  UNL1        0.0980
      4 C          59.9398   87.8133    9.6351 C.ar    1  UNL1        0.1453
      5 C          60.0736   89.2709    9.3078 C.ar    1  UNL1        0.0561
      6 C          61.1302   90.0966    9.9801 C.ar    1  UNL1        0.0857
      7 N          62.0529   89.4645   10.9796 N.ar    1  UNL1       -0.2763
      8 C          63.1096   90.2901   11.6519 C.2     1  UNL1        0.0502
      9 C          63.8522   91.3358   10.8740 C.2     1  UNL1        0.0136
     10 C          64.9088   92.1614   11.5463 C.2     1  UNL1        0.0021
     11 C          65.2228   91.9414   12.9964 C.2     1  UNL1        0.0124
     12 C          66.2049   92.5971   13.9214 C.2     1  UNL1        0.0084
     13 C          66.0692   91.9567   15.2710 C.2     1  UNL1        0.0573
     14 N          65.0033   90.9052   15.1801 N.2     1  UNL1       -0.2538
     15 C          64.4802   90.8958   13.7743 C.2     1  UNL1        0.0642
     16 C          63.4236   90.0701   13.1020 C.3     1  UNL1        0.0899
     17 C          66.9338   92.4137   16.4084 C.3     1  UNL1        0.0626
     18 C          67.9340   93.5111   16.1961 C.3     1  UNL1        0.0752
     19 N          68.0697   94.1516   14.8465 N.3     1  UNL1       -0.2934
     20 C          67.2051   93.6946   13.7091 C.3     1  UNL1        0.0969
     21 H          69.0373   94.0178   14.5530 H       1  UNL1        0.1236
     22 O          58.8832   86.9876    8.9629 O.3     1  UNL1       -0.4704
     23 C          59.1413   86.3978    7.6081 C.3     1  UNL1        0.2320
     24 C          60.4486   85.7202    7.3218 C.ar    1  UNL1        0.0212
     25 C          61.6163   85.9244    8.2409 C.ar    1  UNL1       -0.0007
     26 C          62.9236   85.2468    7.9546 C.ar    1  UNL1       -0.0002
     27 C          63.0632   84.3650    6.7492 C.ar    1  UNL1       -0.0000
     28 C          61.8954   84.1608    5.8301 C.ar    1  UNL1       -0.0002
     29 C          60.5882   84.8384    6.1164 C.ar    1  UNL1       -0.0007
@<TRIPOS>BOND
     1     1     2    2
     2     2     3   ar
     3     3     4   ar
     4     4    22    1
     5    22    23    1
     6    23    24    1
     7    24    25   ar
     8    25    26   ar
     9    26    27   ar
    10    27    28   ar
    11    28    29   ar
    12     4     5   ar
    13     5     6   ar
    14     6     7   ar
    15     7     8    1
    16     8     9    2
    17     9    10    1
    18    10    11    2
    19    11    12    1
    20    12    13    2
    21    13    14    1
    22    14    15    2
    23    15    16    1
    24    13    17    1
    25    17    18    1
    26    18    19    1
    27    19    20    1
    28     7     2   ar
    29    16     8    1
    30    29    24   ar
    31    15    11    1
    32    20    12    1
    33    19    21    1
@<TRIPOS>MOLECULE
*****
 29 33 0 0 0
SMALL
GASTEIGER

@<TRIPOS>ATOM
      1 O          62.2974   87.5007   11.0360 O.2     1  UNL1       -0.2665
      2 C          63.0307   87.9933   12.2482 C.ar    1  UNL1        0.2676
      3 C          63.2263   89.4654   12.4597 C.ar    1  UNL1        0.0980
      4 C          63.9596   89.9580   13.6720 C.ar    1  UNL1        0.1453
      5 C          64.4972   88.9787   14.6728 C.ar    1  UNL1        0.0561
      6 C          64.3015   87.5066   14.4613 C.ar    1  UNL1        0.0857
      7 N          63.5683   87.0140   13.2490 N.ar    1  UNL1       -0.2763
      8 C          63.3726   85.5419   13.0375 C.2     1  UNL1        0.0502
      9 C          62.9996   84.6612   14.1931 C.2     1  UNL1        0.0136
     10 C          62.8039   83.1891   13.9816 C.2     1  UNL1        0.0021
     11 C          62.9813   82.5977   12.6146 C.2     1  UNL1        0.0124
     12 C          62.8560   81.1925   12.1050 C.2     1  UNL1        0.0084
     13 C          63.1516   81.2047   10.6344 C.2     1  UNL1        0.0573
     14 N          63.4596   82.6174   10.2353 N.2     1  UNL1       -0.2538
     15 C          63.3543   83.4784   11.4591 C.2     1  UNL1        0.0642
     16 C          63.5500   84.9504   11.6705 C.3     1  UNL1        0.0899
     17 C          63.1021   79.9278    9.8489 C.3     1  UNL1        0.0626
     18 C          62.7570   78.6388   10.5338 C.3     1  UNL1        0.0752
     19 N          62.4614   78.6266   12.0044 N.3     1  UNL1       -0.2934
     20 C          62.5109   79.9034   12.7899 C.3     1  UNL1        0.0969
     21 H          63.1326   77.9901   12.4343 H       1  UNL1        0.1236
     22 O          64.1552   91.4301   13.8835 O.3     1  UNL1       -0.4704
     23 C          65.5232   92.0313   13.7527 C.3     1  UNL1        0.2320
     24 C          65.8521   92.8978   12.5733 C.ar    1  UNL1        0.0212
     25 C          65.8450   92.3166   11.1905 C.ar    1  UNL1       -0.0007
     26 C          66.1738   93.1831   10.0110 C.ar    1  UNL1       -0.0002
     27 C          66.5099   94.6307   10.2143 C.ar    1  UNL1       -0.0000
     28 C          66.5170   95.2119   11.5971 C.ar    1  UNL1       -0.0002
     29 C          66.1882   94.3454   12.7766 C.ar    1  UNL1       -0.0007
@<TRIPOS>BOND
     1     1     2    2
     2     2     3   ar
     3     3     4   ar
     4     4    22    1
     5    22    23    1
     6    23    24    1
     7    24    25   ar
     8    25    26   ar
     9    26    27   ar
    10    27    28   ar
    11    28    29   ar
    12     4     5   ar
    13     5     6   ar
    14     6     7   ar
    15     7     8    1
    16     8     9    2
    17     9    10    1
    18    10    11    2
    19    11    12    1
    20    12    13    2
    21    13    14    1
    22    14    15    2
    23    15    16    1
    24    13    17    1
    25    17    18    1
    26    18    19    1
    27    19    20    1
    28     7     2   ar
    29    16     8    1
    30    29    24   ar
    31    15    11    1
    32    20    12    1
    33    19    21    1
@<TRIPOS>MOLECULE
*****
 29 33 0 0 0
SMALL
GASTEIGER

@<TRIPOS>ATOM
      1 O          62.3260   87.0832   17.3542 O.2     1  UNL1       -0.2665
      2 C          63.0035   88.0674   16.4473 C.ar    1  UNL1        0.2676
      3 C          63.1398   89.5016   16.8651 C.ar    1  UNL1        0.0980
      4 C          63.8173   90.4858   15.9583 C.ar    1  UNL1        0.1453
      5 C          64.3586   90.0358   14.6338 C.ar    1  UNL1        0.0561
      6 C          64.2224   88.6016   14.2160 C.ar    1  UNL1        0.0857
      7 N          63.5449   87.6174   15.1228 N.ar    1  UNL1       -0.2763
      8 C          63.4086   86.1832   14.7051 C.2     1  UNL1        0.0502
      9 C          63.2463   85.1120   15.7425 C.2     1  UNL1        0.0136
     10 C          63.1101   83.6778   15.3248 C.2     1  UNL1        0.0021
     11 C          63.1361   83.3148   13.8696 C.2     1  UNL1        0.0124
     12 C          63.0255   81.9969   13.1619 C.2     1  UNL1        0.0084
     13 C          63.1194   82.2535   11.6870 C.2     1  UNL1        0.0573
     14 N          63.2881   83.7301   11.4833 N.2     1  UNL1       -0.2538
     15 C          63.2984   84.3859   12.8322 C.2     1  UNL1        0.0642
     16 C          63.4347   85.8202   13.2500 C.3     1  UNL1        0.0899
     17 C          63.0392   81.1097   10.7200 C.3     1  UNL1        0.0626
     18 C          62.8650   79.7091   11.2280 C.3     1  UNL1        0.0752
     19 N          62.7711   79.4524   12.7029 N.3     1  UNL1       -0.2934
     20 C          62.8514   80.5963   13.6698 C.3     1  UNL1        0.0969
     21 H          63.5300   78.8132   12.9394 H       1  UNL1        0.1236
     22 O          63.9536   91.9200   16.3760 O.3     1  UNL1       -0.4704
     23 C          65.2908   92.4556   16.7942 C.3     1  UNL1        0.2320
     24 C          66.4319   92.4673   15.8206 C.ar    1  UNL1        0.0212
     25 C          66.1600   92.5419   14.3474 C.ar    1  UNL1       -0.0007
     26 C          67.3011   92.5537   13.3738 C.ar    1  UNL1       -0.0002
     27 C          68.7140   92.4908   13.8735 C.ar    1  UNL1       -0.0000
     28 C          68.9859   92.4162   15.3467 C.ar    1  UNL1       -0.0002
     29 C          67.8448   92.4045   16.3203 C.ar    1  UNL1       -0.0007
@<TRIPOS>BOND
     1     1     2    2
     2     2     3   ar
     3     3     4   ar
     4     4    22    1
     5    22    23    1
     6    23    24    1
     7    24    25   ar
     8    25    26   ar
     9    26    27   ar
    10    27    28   ar
    11    28    29   ar
    12     4     5   ar
    13     5     6   ar
    14     6     7   ar
    15     7     8    1
    16     8     9    2
    17     9    10    1
    18    10    11    2
    19    11    12    1
    20    12    13    2
    21    13    14    1
    22    14    15    2
    23    15    16    1
    24    13    17    1
    25    17    18    1
    26    18    19    1
    27    19    20    1
    28     7     2   ar
    29    16     8    1
    30    29    24   ar
    31    15    11    1
    32    20    12    1
    33    19    21    1
@<TRIPOS>MOLECULE
*****
 29 33 0 0 0
SMALL
GASTEIGER

@<TRIPOS>ATOM
      1 O          64.6822   88.0925   14.9571 O.2     1  UNL1       -0.2665
      2 C          64.2597   88.9543   13.8043 C.ar    1  UNL1        0.2676
      3 C          64.5163   90.4318   13.8388 C.ar    1  UNL1        0.0980
      4 C          64.0938   91.2936   12.6861 C.ar    1  UNL1        0.1453
      5 C          63.4147   90.6779   11.4989 C.ar    1  UNL1        0.0561
      6 C          63.1580   89.2005   11.4644 C.ar    1  UNL1        0.0857
      7 N          63.5805   88.3387   12.6171 N.ar    1  UNL1       -0.2763
      8 C          63.3238   86.8612   12.5826 C.2     1  UNL1        0.0502
      9 C          62.5385   86.2626   11.4535 C.2     1  UNL1        0.0136
     10 C          62.2818   84.7851   11.4190 C.2     1  UNL1        0.0021
     11 C          62.8104   83.9062   12.5135 C.2     1  UNL1        0.0124
     12 C          62.7171   82.4274   12.7467 C.2     1  UNL1        0.0084
     13 C          63.4447   82.1120   14.0199 C.2     1  UNL1        0.0573
     14 N          63.9878   83.3960   14.5736 N.2     1  UNL1       -0.2538
     15 C          63.5958   84.5049   13.6426 C.2     1  UNL1        0.0642
     16 C          63.8525   85.9823   13.6771 C.3     1  UNL1        0.0899
     17 C          63.5188   80.6965   14.5105 C.3     1  UNL1        0.0626
     18 C          62.8652   79.5964   13.7280 C.3     1  UNL1        0.0752
     19 N          62.1376   79.9117   12.4548 N.3     1  UNL1       -0.2934
     20 C          62.0635   81.3272   11.9641 C.3     1  UNL1        0.0969
     21 H          61.1768   79.5921   12.5778 H       1  UNL1        0.1236
     22 O          64.3505   92.7711   12.7206 O.3     1  UNL1       -0.4704
     23 C          65.7587   93.2874   12.7411 C.3     1  UNL1        0.2320
     24 C          66.4346   93.6735   11.4589 C.ar    1  UNL1        0.0212
     25 C          67.1682   92.6398   10.6569 C.ar    1  UNL1       -0.0007
     26 C          67.8442   93.0260    9.3747 C.ar    1  UNL1       -0.0002
     27 C          67.7865   94.4459    8.8945 C.ar    1  UNL1       -0.0000
     28 C          67.0528   95.4796    9.6964 C.ar    1  UNL1       -0.0002
     29 C          66.3769   95.0934   10.9786 C.ar    1  UNL1       -0.0007
@<TRIPOS>BOND
     1     1     2    2
     2     2     3   ar
     3     3     4   ar
     4     4    22    1
     5    22    23    1
     6    23    24    1
     7    24    25   ar
     8    25    26   ar
     9    26    27   ar
    10    27    28   ar
    11    28    29   ar
    12     4     5   ar
    13     5     6   ar
    14     6     7   ar
    15     7     8    1
    16     8     9    2
    17     9    10    1
    18    10    11    2
    19    11    12    1
    20    12    13    2
    21    13    14    1
    22    14    15    2
    23    15    16    1
    24    13    17    1
    25    17    18    1
    26    18    19    1
    27    19    20    1
    28     7     2   ar
    29    16     8    1
    30    29    24   ar
    31    15    11    1
    32    20    12    1
    33    19    21    1
@<TRIPOS>MOLECULE
*****
 29 33 0 0 0
SMALL
GASTEIGER

@<TRIPOS>ATOM
      1 O          62.6626   87.1698   11.9023 O.2     1  UNL1       -0.2665
      2 C          61.8952   88.1567   11.0733 C.ar    1  UNL1        0.2676
      3 C          60.8299   87.6777   10.1322 C.ar    1  UNL1        0.0980
      4 C          60.0626   88.6646    9.3032 C.ar    1  UNL1        0.1453
      5 C          60.3605   90.1303    9.4153 C.ar    1  UNL1        0.0561
      6 C          61.4258   90.6093   10.3564 C.ar    1  UNL1        0.0857
      7 N          62.1931   89.6224   11.1854 N.ar    1  UNL1       -0.2763
      8 C          63.2585   90.1014   12.1265 C.2     1  UNL1        0.0502
      9 C          63.7063   89.2270   13.2600 C.2     1  UNL1        0.0136
     10 C          64.7716   89.7059   14.2012 C.2     1  UNL1        0.0021
     11 C          65.3891   91.0593   14.0088 C.2     1  UNL1        0.0124
     12 C          66.4515   91.7952   14.7702 C.2     1  UNL1        0.0084
     13 C          66.6603   93.1244   14.1073 C.2     1  UNL1        0.0573
     14 N          65.7270   93.2100   12.9362 N.2     1  UNL1       -0.2538
     15 C          64.9413   91.9337   12.8753 C.2     1  UNL1        0.0642
     16 C          63.8760   91.4548   11.9342 C.3     1  UNL1        0.0899
     17 C          67.6734   94.0851   14.6557 C.3     1  UNL1        0.0626
     18 C          68.4776   93.7166   15.8670 C.3     1  UNL1        0.0752
     19 N          68.2688   92.3873   16.5299 N.3     1  UNL1       -0.2934
     20 C          67.2558   91.4266   15.9815 C.3     1  UNL1        0.0969
     21 H          68.0008   92.5786   17.4953 H       1  UNL1        0.1236
     22 O          58.9972   88.1856    8.3621 O.3     1  UNL1       -0.4704
     23 C          59.2301   88.2292    6.8809 C.3     1  UNL1        0.2320
     24 C          59.0720   89.5207    6.1345 C.ar    1  UNL1        0.0212
     25 C          60.2803   90.2302    5.5990 C.ar    1  UNL1       -0.0007
     26 C          60.1222   91.5217    4.8527 C.ar    1  UNL1       -0.0002
     27 C          58.7560   92.1037    4.6418 C.ar    1  UNL1       -0.0000
     28 C          57.5477   91.3943    5.1773 C.ar    1  UNL1       -0.0002
     29 C          57.7058   90.1028    5.9236 C.ar    1  UNL1       -0.0007
@<TRIPOS>BOND
     1     1     2    2
     2     2     3   ar
     3     3     4   ar
     4     4    22    1
     5    22    23    1
     6    23    24    1
     7    24    25   ar
     8    25    26   ar
     9    26    27   ar
    10    27    28   ar
    11    28    29   ar
    12     4     5   ar
    13     5     6   ar
    14     6     7   ar
    15     7     8    1
    16     8     9    2
    17     9    10    1
    18    10    11    2
    19    11    12    1
    20    12    13    2
    21    13    14    1
    22    14    15    2
    23    15    16    1
    24    13    17    1
    25    17    18    1
    26    18    19    1
    27    19    20    1
    28     7     2   ar
    29    16     8    1
    30    29    24   ar
    31    15    11    1
    32    20    12    1
    33    19    21    1
@<TRIPOS>MOLECULE
*****
 29 33 0 0 0
SMALL
GASTEIGER

@<TRIPOS>ATOM
      1 O          69.1346   75.6383   15.2787 O.2     1  UNL1       -0.2665
      2 C          70.2969   74.8063   15.7333 C.ar    1  UNL1        0.2676
      3 C          70.1039   73.7651   16.7957 C.ar    1  UNL1        0.0980
      4 C          71.2662   72.9330   17.2503 C.ar    1  UNL1        0.1453
      5 C          72.6215   73.1421   16.6427 C.ar    1  UNL1        0.0561
      6 C          72.8145   74.1834   15.5803 C.ar    1  UNL1        0.0857
      7 N          71.6522   75.0154   15.1256 N.ar    1  UNL1       -0.2763
      8 C          71.8452   76.0566   14.0632 C.2     1  UNL1        0.0502
      9 C          71.4780   75.7538   12.6408 C.2     1  UNL1        0.0136
     10 C          71.6710   76.7950   11.5784 C.2     1  UNL1        0.0021
     11 C          72.2312   78.1390   11.9385 C.2     1  UNL1        0.0124
     12 C          72.5313   79.3552   11.1132 C.2     1  UNL1        0.0084
     13 C          73.0839   80.4097   12.0257 C.2     1  UNL1        0.0573
     14 N          73.1254   79.8452   13.4148 N.2     1  UNL1       -0.2538
     15 C          72.5984   78.4419   13.3609 C.2     1  UNL1        0.0642
     16 C          72.4054   77.4007   14.4233 C.3     1  UNL1        0.0899
     17 C          73.4780   81.7476   11.4738 C.3     1  UNL1        0.0626
     18 C          73.3194   82.0310   10.0094 C.3     1  UNL1        0.0752
     19 N          72.7668   80.9765    9.0969 N.3     1  UNL1       -0.2934
     20 C          72.3727   79.6386    9.6489 C.3     1  UNL1        0.0969
     21 H          73.4751   80.8037    8.3836 H       1  UNL1        0.1236
     22 O          71.0732   71.8918   18.3127 O.3     1  UNL1       -0.4704
     23 C          70.8816   70.4546   17.9283 C.3     1  UNL1        0.2320
     24 C          71.6033   69.8937   16.7390 C.ar    1  UNL1        0.0212
     25 C          72.9079   69.1766   16.9230 C.ar    1  UNL1       -0.0007
     26 C          73.6296   68.6157   15.7337 C.ar    1  UNL1       -0.0002
     27 C          73.0468   68.7719   14.3604 C.ar    1  UNL1       -0.0000
     28 C          71.7423   69.4890   14.1764 C.ar    1  UNL1       -0.0002
     29 C          71.0205   70.0499   15.3657 C.ar    1  UNL1       -0.0007
@<TRIPOS>BOND
     1     1     2    2
     2     2     3   ar
     3     3     4   ar
     4     4    22    1
     5    22    23    1
     6    23    24    1
     7    24    25   ar
     8    25    26   ar
     9    26    27   ar
    10    27    28   ar
    11    28    29   ar
    12     4     5   ar
    13     5     6   ar
    14     6     7   ar
    15     7     8    1
    16     8     9    2
    17     9    10    1
    18    10    11    2
    19    11    12    1
    20    12    13    2
    21    13    14    1
    22    14    15    2
    23    15    16    1
    24    13    17    1
    25    17    18    1
    26    18    19    1
    27    19    20    1
    28     7     2   ar
    29    16     8    1
    30    29    24   ar
    31    15    11    1
    32    20    12    1
    33    19    21    1
