@<TRIPOS>MOLECULE
*****
 33 36 0 0 0
SMALL
GASTEIGER

@<TRIPOS>ATOM
      1 C          62.2656   86.4366   10.4093 C.ar    1  UNL1        0.1610
      2 C          62.5954   87.3738   11.5331 C.ar    1  UNL1        0.0754
      3 C          62.0654   88.7770   11.5194 C.ar    1  UNL1        0.1445
      4 C          61.2056   89.2429   10.3820 C.ar    1  UNL1        0.0676
      5 C          60.8759   88.3057    9.2582 C.ar    1  UNL1        0.1566
      6 F          60.0162   88.7717    8.1207 F       1  UNL1       -0.2031
      7 C          61.4059   86.9026    9.2719 C.ar    1  UNL1        0.1196
      8 CL         61.0762   85.9653    8.1481 Cl      1  UNL1       -0.0767
      9 O          62.7956   85.0334   10.4230 O.3     1  UNL1       -0.4524
     10 C          62.4769   84.0447   14.2532 C.ar    1  UNL1        0.0723
     11 C          62.4857   82.5475   14.1612 C.ar    1  UNL1        0.0219
     12 C          62.5977   81.8790   12.8231 C.ar    1  UNL1        0.0614
     13 CL         62.6065   80.3818   12.7311 Cl      1  UNL1       -0.0821
     14 C          62.7010   82.7076   11.5771 C.ar    1  UNL1        0.0489
     15 C          62.6923   84.2047   11.6691 C.ar    1  UNL1        0.1469
     16 C          62.5802   84.8733   13.0071 C.ar    1  UNL1        0.0478
     17 N          62.2528   85.3818   16.9294 N.1     1  UNL1       -0.1908
     18 C          62.3649   84.7132   15.5914 C.1     1  UNL1        0.1005
     19 O          62.3951   89.7142   12.6432 O.3     1  UNL1       -0.4687
     20 C          63.7799   89.7365   13.2194 C.3     1  UNL1        0.2527
     21 C          64.0756   90.5727   14.4291 C.ar    1  UNL1        0.1271
     22 N          63.1989   90.7157   15.6378 N.ar    1  UNL1       -0.1472
     23 N          63.8813   91.6441   16.5981 N.ar    1  UNL1       -0.1305
     24 C          65.1798   92.0750   15.9829 C.ar    1  UNL1        0.1641
     25 N          66.2682   92.9848   16.4702 N.ar    1  UNL1       -0.3262
     26 C          67.4768   93.2324   15.6169 C.ar    1  UNL1        0.1037
     27 N          68.5653   94.1422   16.1042 N.pl3   1  UNL1       -0.3441
     28 C          67.5968   92.5702   14.2764 C.ar    1  UNL1        0.0321
     29 C          66.5083   91.6604   13.7891 C.ar    1  UNL1        0.0072
     30 C          65.2998   91.4129   14.6423 C.ar    1  UNL1        0.0547
     31 H          66.1894   93.4194   17.3501 H       1  UNL1        0.1686
     32 H          68.4866   94.5768   16.9841 H       1  UNL1        0.1437
     33 H          69.3585   94.3047   15.5442 H       1  UNL1        0.1437
@<TRIPOS>BOND
     1    17    18    3
     2    18    10    1
     3    10    11   ar
     4    11    12   ar
     5    12    13    1
     6    12    14   ar
     7    14    15   ar
     8    15     9    1
     9     9     1    1
    10     1     2   ar
    11     2     3   ar
    12     3    19    1
    13    19    20    1
    14    20    21    1
    15    21    22   ar
    16    22    23   ar
    17    23    24   ar
    18    24    25   ar
    19    25    26   ar
    20    26    27    1
    21    26    28   ar
    22    28    29   ar
    23    29    30   ar
    24     3     4   ar
    25     4     5   ar
    26     5     6    1
    27     5     7   ar
    28     7     8    1
    29    15    16   ar
    30    16    10   ar
    31     7     1   ar
    32    30    21   ar
    33    30    24    1
    34    25    31    1
    35    27    32    1
    36    27    33    1
@<TRIPOS>MOLECULE
*****
 33 36 0 0 0
SMALL
GASTEIGER

@<TRIPOS>ATOM
      1 C          62.0807   86.6685   10.1738 C.ar    1  UNL1        0.1610
      2 C          62.4466   87.7087   11.1907 C.ar    1  UNL1        0.0754
      3 C          61.7374   89.0304   11.1999 C.ar    1  UNL1        0.1445
      4 C          60.6623   89.3119   10.1924 C.ar    1  UNL1        0.0676
      5 C          60.2964   88.2716    9.1756 C.ar    1  UNL1        0.1566
      6 F          59.2214   88.5530    8.1681 F       1  UNL1       -0.2031
      7 C          61.0056   86.9499    9.1663 C.ar    1  UNL1        0.1196
      8 CL         60.6398   85.9095    8.1495 Cl      1  UNL1       -0.0767
      9 O          62.7899   85.3466   10.1645 O.3     1  UNL1       -0.4524
     10 C          62.5027   84.1470   13.9365 C.ar    1  UNL1        0.0723
     11 C          62.5867   82.6589   13.7679 C.ar    1  UNL1        0.0219
     12 C          62.7384   82.0667   12.3982 C.ar    1  UNL1        0.0614
     13 CL         62.8224   80.5785   12.2295 Cl      1  UNL1       -0.0821
     14 C          62.8061   82.9626   11.1970 C.ar    1  UNL1        0.0489
     15 C          62.7221   84.4507   11.3657 C.ar    1  UNL1        0.1469
     16 C          62.5704   85.0430   12.7354 C.ar    1  UNL1        0.0478
     17 N          62.1993   85.3315   16.6761 N.1     1  UNL1       -0.1908
     18 C          62.3510   84.7393   15.3064 C.1     1  UNL1        0.1005
     19 O          62.1033   90.0707   12.2167 O.3     1  UNL1       -0.4687
     20 C          63.2173   89.8117   13.1873 C.3     1  UNL1        0.2527
     21 C          64.1745   90.9110   13.5412 C.ar    1  UNL1        0.1271
     22 N          64.6360   91.2674   14.9232 N.ar    1  UNL1       -0.1472
     23 N          65.5850   92.4236   14.8112 N.ar    1  UNL1       -0.1305
     24 C          65.7101   92.7818   13.3600 C.ar    1  UNL1        0.1641
     25 N          66.5051   93.8384   12.6519 N.ar    1  UNL1       -0.3262
     26 C          66.4284   93.9601   11.1588 C.ar    1  UNL1        0.1037
     27 N          67.2235   95.0168   10.4507 N.pl3   1  UNL1       -0.3441
     28 C          65.5567   93.0253   10.3739 C.ar    1  UNL1        0.0321
     29 C          64.7616   91.9687   11.0820 C.ar    1  UNL1        0.0072
     30 C          64.8383   91.8469   12.5750 C.ar    1  UNL1        0.0547
     31 H          67.0773   94.4519   13.1671 H       1  UNL1        0.1686
     32 H          67.7956   95.6304   10.9658 H       1  UNL1        0.1437
     33 H          67.1731   95.0967    9.4707 H       1  UNL1        0.1437
@<TRIPOS>BOND
     1    17    18    3
     2    18    10    1
     3    10    11   ar
     4    11    12   ar
     5    12    13    1
     6    12    14   ar
     7    14    15   ar
     8    15     9    1
     9     9     1    1
    10     1     2   ar
    11     2     3   ar
    12     3    19    1
    13    19    20    1
    14    20    21    1
    15    21    22   ar
    16    22    23   ar
    17    23    24   ar
    18    24    25   ar
    19    25    26   ar
    20    26    27    1
    21    26    28   ar
    22    28    29   ar
    23    29    30   ar
    24     3     4   ar
    25     4     5   ar
    26     5     6    1
    27     5     7   ar
    28     7     8    1
    29    15    16   ar
    30    16    10   ar
    31     7     1   ar
    32    30    21   ar
    33    30    24    1
    34    25    31    1
    35    27    32    1
    36    27    33    1
@<TRIPOS>MOLECULE
*****
 33 36 0 0 0
SMALL
GASTEIGER

@<TRIPOS>ATOM
      1 C          62.1693   86.9254   10.4142 C.ar    1  UNL1        0.1610
      2 C          62.6792   87.8918   11.4418 C.ar    1  UNL1        0.0754
      3 C          62.2144   89.3178   11.4261 C.ar    1  UNL1        0.1445
      4 C          61.2396   89.7775   10.3827 C.ar    1  UNL1        0.0676
      5 C          60.7297   88.8111    9.3551 C.ar    1  UNL1        0.1566
      6 F          59.7550   89.2708    8.3117 F       1  UNL1       -0.2031
      7 C          61.1945   87.3851    9.3708 C.ar    1  UNL1        0.1196
      8 CL         60.6846   86.4186    8.3432 Cl      1  UNL1       -0.0767
      9 O          62.6341   85.4992   10.4299 O.3     1  UNL1       -0.4524
     10 C          62.7512   82.6094   13.1473 C.ar    1  UNL1        0.0723
     11 C          63.2284   83.3695   14.3491 C.ar    1  UNL1        0.0219
     12 C          63.5076   84.8396   14.2446 C.ar    1  UNL1        0.0614
     13 CL         63.9849   85.5997   15.4464 Cl      1  UNL1       -0.0821
     14 C          63.3095   85.5495   12.9381 C.ar    1  UNL1        0.0489
     15 C          62.8322   84.7893   11.7363 C.ar    1  UNL1        0.1469
     16 C          62.5530   83.3193   11.8408 C.ar    1  UNL1        0.0478
     17 N          62.1928   79.6692   13.3565 N.1     1  UNL1       -0.1908
     18 C          62.4720   81.1392   13.2519 C.1     1  UNL1        0.1005
     19 O          62.7243   90.2842   12.4537 O.3     1  UNL1       -0.4687
     20 C          63.8118   89.8686   13.3997 C.3     1  UNL1        0.2527
     21 C          64.1849   90.7560   14.5500 C.ar    1  UNL1        0.1271
     22 N          63.3233   91.0697   15.7372 N.ar    1  UNL1       -0.1472
     23 N          64.0910   91.9931   16.6360 N.ar    1  UNL1       -0.1305
     24 C          65.4270   92.2503   16.0043 C.ar    1  UNL1        0.1641
     25 N          66.5982   93.0818   16.4365 N.ar    1  UNL1       -0.3262
     26 C          67.8274   93.1488   15.5794 C.ar    1  UNL1        0.1037
     27 N          68.9987   93.9803   16.0116 N.pl3   1  UNL1       -0.3441
     28 C          67.8854   92.3842   14.2902 C.ar    1  UNL1        0.0321
     29 C          66.7142   91.5526   13.8580 C.ar    1  UNL1        0.0072
     30 C          65.4850   91.4857   14.7151 C.ar    1  UNL1        0.0547
     31 H          66.5601   93.5836   17.2826 H       1  UNL1        0.1686
     32 H          68.9606   94.4822   16.8577 H       1  UNL1        0.1437
     33 H          69.8054   94.0243   15.4491 H       1  UNL1        0.1437
@<TRIPOS>BOND
     1    17    18    3
     2    18    10    1
     3    10    11   ar
     4    11    12   ar
     5    12    13    1
     6    12    14   ar
     7    14    15   ar
     8    15     9    1
     9     9     1    1
    10     1     2   ar
    11     2     3   ar
    12     3    19    1
    13    19    20    1
    14    20    21    1
    15    21    22   ar
    16    22    23   ar
    17    23    24   ar
    18    24    25   ar
    19    25    26   ar
    20    26    27    1
    21    26    28   ar
    22    28    29   ar
    23    29    30   ar
    24     3     4   ar
    25     4     5   ar
    26     5     6    1
    27     5     7   ar
    28     7     8    1
    29    15    16   ar
    30    16    10   ar
    31     7     1   ar
    32    30    21   ar
    33    30    24    1
    34    25    31    1
    35    27    32    1
    36    27    33    1
@<TRIPOS>MOLECULE
*****
 33 36 0 0 0
SMALL
GASTEIGER

@<TRIPOS>ATOM
      1 C          62.2449   85.3334   10.4733 C.ar    1  UNL1        0.1610
      2 C          62.1164   85.1511   11.9567 C.ar    1  UNL1        0.0754
      3 C          62.9156   84.0903   12.6538 C.ar    1  UNL1        0.1445
      4 C          63.8431   83.2119   11.8678 C.ar    1  UNL1        0.0676
      5 C          63.9716   83.3942   10.3844 C.ar    1  UNL1        0.1566
      6 F          64.8992   82.5158    9.5984 F       1  UNL1       -0.2031
      7 C          63.1725   84.4550    9.6873 C.ar    1  UNL1        0.1196
      8 CL         63.3010   84.6374    8.2039 Cl      1  UNL1       -0.0767
      9 O          61.4458   86.3943    9.7760 O.3     1  UNL1       -0.4524
     10 C          62.3227   90.1006   10.8914 C.ar    1  UNL1        0.0723
     11 C          61.0612   90.4879   11.6046 C.ar    1  UNL1        0.0219
     12 C          59.9279   89.5108   11.7083 C.ar    1  UNL1        0.0614
     13 CL         58.6665   89.8982   12.4214 Cl      1  UNL1       -0.0821
     14 C          60.0561   88.1462   11.0987 C.ar    1  UNL1        0.0489
     15 C          61.3176   87.7589   10.3856 C.ar    1  UNL1        0.1469
     16 C          62.4509   88.7360   10.2819 C.ar    1  UNL1        0.0478
     17 N          64.5894   92.0550   10.6841 N.1     1  UNL1       -0.1908
     18 C          63.4561   91.0778   10.7878 C.1     1  UNL1        0.1005
     19 O          62.7871   83.9080   14.1372 O.3     1  UNL1       -0.4687
     20 C          63.7880   84.5382   15.0598 C.3     1  UNL1        0.2527
     21 C          63.3607   85.6271   15.9988 C.ar    1  UNL1        0.1271
     22 N          62.6338   85.4369   17.2970 N.ar    1  UNL1       -0.1472
     23 N          62.4092   86.7897   17.9050 N.ar    1  UNL1       -0.1305
     24 C          62.9974   87.8159   16.9825 C.ar    1  UNL1        0.1641
     25 N          63.0734   89.3118   17.0631 N.ar    1  UNL1       -0.3262
     26 C          63.7375   90.0892   15.9656 C.ar    1  UNL1        0.1037
     27 N          63.8136   91.5851   16.0461 N.pl3   1  UNL1       -0.3441
     28 C          64.3256   89.3706   14.7875 C.ar    1  UNL1        0.0321
     29 C          64.2496   87.8748   14.7069 C.ar    1  UNL1        0.0072
     30 C          63.5854   87.0974   15.8044 C.ar    1  UNL1        0.0547
     31 H          62.6875   89.7834   17.8363 H       1  UNL1        0.1686
     32 H          63.4277   92.0567   16.8194 H       1  UNL1        0.1437
     33 H          64.2495   92.0953   15.3258 H       1  UNL1        0.1437
@<TRIPOS>BOND
     1    17    18    3
     2    18    10    1
     3    10    11   ar
     4    11    12   ar
     5    12    13    1
     6    12    14   ar
     7    14    15   ar
     8    15     9    1
     9     9     1    1
    10     1     2   ar
    11     2     3   ar
    12     3    19    1
    13    19    20    1
    14    20    21    1
    15    21    22   ar
    16    22    23   ar
    17    23    24   ar
    18    24    25   ar
    19    25    26   ar
    20    26    27    1
    21    26    28   ar
    22    28    29   ar
    23    29    30   ar
    24     3     4   ar
    25     4     5   ar
    26     5     6    1
    27     5     7   ar
    28     7     8    1
    29    15    16   ar
    30    16    10   ar
    31     7     1   ar
    32    30    21   ar
    33    30    24    1
    34    25    31    1
    35    27    32    1
    36    27    33    1
@<TRIPOS>MOLECULE
*****
 33 36 0 0 0
SMALL
GASTEIGER

@<TRIPOS>ATOM
      1 C          64.2516   86.6503   15.1870 C.ar    1  UNL1        0.1610
      2 C          64.4103   88.0892   14.7940 C.ar    1  UNL1        0.0754
      3 C          63.8176   89.1698   15.6490 C.ar    1  UNL1        0.1445
      4 C          63.0662   88.8116   16.8968 C.ar    1  UNL1        0.0676
      5 C          62.9074   87.3727   17.2897 C.ar    1  UNL1        0.1566
      6 F          62.1560   87.0145   18.5375 F       1  UNL1       -0.2031
      7 C          63.5001   86.2921   16.4348 C.ar    1  UNL1        0.1196
      8 CL         63.3415   84.8531   16.8276 Cl      1  UNL1       -0.0767
      9 O          64.8443   85.5696   14.3320 O.3     1  UNL1       -0.4524
     10 C          62.3099   84.9278   11.3463 C.ar    1  UNL1        0.0723
     11 C          62.2826   83.4284   11.3150 C.ar    1  UNL1        0.0219
     12 C          63.1092   82.6427   12.2893 C.ar    1  UNL1        0.0614
     13 CL         63.0819   81.1433   12.2580 Cl      1  UNL1       -0.0821
     14 C          63.9631   83.3564   13.2950 C.ar    1  UNL1        0.0489
     15 C          63.9904   84.8558   13.3263 C.ar    1  UNL1        0.1469
     16 C          63.1638   85.6416   12.3520 C.ar    1  UNL1        0.0478
     17 N          60.6567   86.4992    9.3975 N.1     1  UNL1       -0.1908
     18 C          61.4833   85.7136   10.3719 C.1     1  UNL1        0.1005
     19 O          63.9763   90.6087   15.2560 O.3     1  UNL1       -0.4687
     20 C          65.0574   91.0093   14.2964 C.3     1  UNL1        0.2527
     21 C          64.7073   91.3888   12.8880 C.ar    1  UNL1        0.1271
     22 N          65.4059   92.4211   12.0535 N.ar    1  UNL1       -0.1472
     23 N          64.7275   92.4729   10.7167 N.ar    1  UNL1       -0.1305
     24 C          63.6097   91.4727   10.7250 C.ar    1  UNL1        0.1641
     25 N          62.6016   91.0855    9.6840 N.ar    1  UNL1       -0.3262
     26 C          61.5810   90.0282    9.9850 C.ar    1  UNL1        0.1037
     27 N          60.5729   89.6409    8.9440 N.pl3   1  UNL1       -0.3441
     28 C          61.5686   89.3581   11.3270 C.ar    1  UNL1        0.0321
     29 C          62.5767   89.7454   12.3680 C.ar    1  UNL1        0.0072
     30 C          63.5972   90.8027   12.0670 C.ar    1  UNL1        0.0547
     31 H          62.6097   91.5252    8.8033 H       1  UNL1        0.1686
     32 H          60.5810   90.0807    8.0632 H       1  UNL1        0.1437
     33 H          59.9030   88.9470    9.1415 H       1  UNL1        0.1437
@<TRIPOS>BOND
     1    17    18    3
     2    18    10    1
     3    10    11   ar
     4    11    12   ar
     5    12    13    1
     6    12    14   ar
     7    14    15   ar
     8    15     9    1
     9     9     1    1
    10     1     2   ar
    11     2     3   ar
    12     3    19    1
    13    19    20    1
    14    20    21    1
    15    21    22   ar
    16    22    23   ar
    17    23    24   ar
    18    24    25   ar
    19    25    26   ar
    20    26    27    1
    21    26    28   ar
    22    28    29   ar
    23    29    30   ar
    24     3     4   ar
    25     4     5   ar
    26     5     6    1
    27     5     7   ar
    28     7     8    1
    29    15    16   ar
    30    16    10   ar
    31     7     1   ar
    32    30    21   ar
    33    30    24    1
    34    25    31    1
    35    27    32    1
    36    27    33    1
@<TRIPOS>MOLECULE
*****
 33 36 0 0 0
SMALL
GASTEIGER

@<TRIPOS>ATOM
      1 C          62.0120   86.7932   10.1520 C.ar    1  UNL1        0.1610
      2 C          62.3355   87.8595   11.1562 C.ar    1  UNL1        0.0754
      3 C          61.6571   89.1949   11.0769 C.ar    1  UNL1        0.1445
      4 C          60.6552   89.4641    9.9935 C.ar    1  UNL1        0.0676
      5 C          60.3317   88.3978    8.9894 C.ar    1  UNL1        0.1566
      6 F          59.3298   88.6670    7.9060 F       1  UNL1       -0.2031
      7 C          61.0101   87.0624    9.0686 C.ar    1  UNL1        0.1196
      8 CL         60.6867   85.9960    8.0645 Cl      1  UNL1       -0.0767
      9 O          62.6905   85.4577   10.2313 O.3     1  UNL1       -0.4524
     10 C          62.7547   82.6481   13.0333 C.ar    1  UNL1        0.0723
     11 C          63.2263   83.4392   14.2172 C.ar    1  UNL1        0.0219
     12 C          63.5193   84.9032   14.0726 C.ar    1  UNL1        0.0614
     13 CL         63.9909   85.6943   15.2565 Cl      1  UNL1       -0.0821
     14 C          63.3407   85.5760   12.7439 C.ar    1  UNL1        0.0489
     15 C          62.8691   84.7849   11.5600 C.ar    1  UNL1        0.1469
     16 C          62.5760   83.3209   11.7046 C.ar    1  UNL1        0.0478
     17 N          62.1686   79.7201   13.3228 N.1     1  UNL1       -0.1908
     18 C          62.4616   81.1841   13.1781 C.1     1  UNL1        0.1005
     19 O          61.9805   90.2612   12.0811 O.3     1  UNL1       -0.4687
     20 C          62.9653   89.9843   13.1783 C.3     1  UNL1        0.2527
     21 C          64.0161   90.9998   13.5169 C.ar    1  UNL1        0.1271
     22 N          64.5108   91.3312   14.8936 N.ar    1  UNL1       -0.1472
     23 N          65.5572   92.3983   14.7657 N.ar    1  UNL1       -0.1305
     24 C          65.7091   92.7264   13.3099 C.ar    1  UNL1        0.1641
     25 N          66.5917   93.7006   12.5874 N.ar    1  UNL1       -0.3262
     26 C          66.5218   93.8104   11.0931 C.ar    1  UNL1        0.1037
     27 N          67.4044   94.7845   10.3705 N.pl3   1  UNL1       -0.3441
     28 C          65.5694   92.9460   10.3213 C.ar    1  UNL1        0.0321
     29 C          64.6868   91.9718   11.0438 C.ar    1  UNL1        0.0072
     30 C          64.7567   91.8621   12.5381 C.ar    1  UNL1        0.0547
     31 H          67.2168   94.2679   13.0940 H       1  UNL1        0.1686
     32 H          68.0296   95.3519   10.8771 H       1  UNL1        0.1437
     33 H          67.3586   94.8566    9.3897 H       1  UNL1        0.1437
@<TRIPOS>BOND
     1    17    18    3
     2    18    10    1
     3    10    11   ar
     4    11    12   ar
     5    12    13    1
     6    12    14   ar
     7    14    15   ar
     8    15     9    1
     9     9     1    1
    10     1     2   ar
    11     2     3   ar
    12     3    19    1
    13    19    20    1
    14    20    21    1
    15    21    22   ar
    16    22    23   ar
    17    23    24   ar
    18    24    25   ar
    19    25    26   ar
    20    26    27    1
    21    26    28   ar
    22    28    29   ar
    23    29    30   ar
    24     3     4   ar
    25     4     5   ar
    26     5     6    1
    27     5     7   ar
    28     7     8    1
    29    15    16   ar
    30    16    10   ar
    31     7     1   ar
    32    30    21   ar
    33    30    24    1
    34    25    31    1
    35    27    32    1
    36    27    33    1
@<TRIPOS>MOLECULE
*****
 33 36 0 0 0
SMALL
GASTEIGER

@<TRIPOS>ATOM
      1 C          63.7084   82.8221   11.6768 C.ar    1  UNL1        0.1610
      2 C          63.7724   83.3950   13.0616 C.ar    1  UNL1        0.0754
      3 C          63.3545   82.5628   14.2375 C.ar    1  UNL1        0.1445
      4 C          62.8726   81.1578   14.0286 C.ar    1  UNL1        0.0676
      5 C          62.8086   80.5849   12.6438 C.ar    1  UNL1        0.1566
      6 F          62.3267   79.1798   12.4349 F       1  UNL1       -0.2031
      7 C          63.2265   81.4171   11.4679 C.ar    1  UNL1        0.1196
      8 CL         63.1625   80.8443   10.0830 Cl      1  UNL1       -0.0767
      9 O          64.1263   83.6544   10.5007 O.3     1  UNL1       -0.4524
     10 C          61.3569   86.4301    9.8882 C.ar    1  UNL1        0.0723
     11 C          61.1191   86.2732    8.4155 C.ar    1  UNL1        0.0219
     12 C          61.8838   85.2434    7.6378 C.ar    1  UNL1        0.0614
     13 CL         61.6460   85.0865    6.1651 Cl      1  UNL1       -0.0821
     14 C          62.8862   84.3704    8.3329 C.ar    1  UNL1        0.0489
     15 C          63.1239   84.5273    9.8056 C.ar    1  UNL1        0.1469
     16 C          62.3593   85.5571   10.5833 C.ar    1  UNL1        0.0478
     17 N          59.8275   88.4898   11.4435 N.1     1  UNL1       -0.1908
     18 C          60.5922   87.4600   10.6659 C.1     1  UNL1        0.1005
     19 O          63.4185   83.1357   15.6223 O.3     1  UNL1       -0.4687
     20 C          64.1976   84.3915   15.8791 C.3     1  UNL1        0.2527
     21 C          63.4947   85.6238   16.3666 C.ar    1  UNL1        0.1271
     22 N          62.5087   85.6882   17.4951 N.ar    1  UNL1       -0.1472
     23 N          62.0591   87.1121   17.6370 N.ar    1  UNL1       -0.1305
     24 C          62.7672   87.9278   16.5962 C.ar    1  UNL1        0.1641
     25 N          62.7186   89.3892   16.2620 N.ar    1  UNL1       -0.3262
     26 C          63.5574   89.9308   15.1426 C.ar    1  UNL1        0.1037
     27 N          63.5088   91.3923   14.8083 N.pl3   1  UNL1       -0.3441
     28 C          64.4447   89.0109   14.3574 C.ar    1  UNL1        0.0321
     29 C          64.4932   87.5495   14.6916 C.ar    1  UNL1        0.0072
     30 C          63.6545   87.0079   15.8110 C.ar    1  UNL1        0.0547
     31 H          62.1362   89.9930   16.7773 H       1  UNL1        0.1686
     32 H          62.9265   91.9961   15.3236 H       1  UNL1        0.1437
     33 H          64.0593   91.7478   14.0735 H       1  UNL1        0.1437
@<TRIPOS>BOND
     1    17    18    3
     2    18    10    1
     3    10    11   ar
     4    11    12   ar
     5    12    13    1
     6    12    14   ar
     7    14    15   ar
     8    15     9    1
     9     9     1    1
    10     1     2   ar
    11     2     3   ar
    12     3    19    1
    13    19    20    1
    14    20    21    1
    15    21    22   ar
    16    22    23   ar
    17    23    24   ar
    18    24    25   ar
    19    25    26   ar
    20    26    27    1
    21    26    28   ar
    22    28    29   ar
    23    29    30   ar
    24     3     4   ar
    25     4     5   ar
    26     5     6    1
    27     5     7   ar
    28     7     8    1
    29    15    16   ar
    30    16    10   ar
    31     7     1   ar
    32    30    21   ar
    33    30    24    1
    34    25    31    1
    35    27    32    1
    36    27    33    1
@<TRIPOS>MOLECULE
*****
 33 36 0 0 0
SMALL
GASTEIGER

@<TRIPOS>ATOM
      1 C          62.7377   85.0010   11.9983 C.ar    1  UNL1        0.1610
      2 C          63.1219   86.2319   12.7646 C.ar    1  UNL1        0.0754
      3 C          63.8697   86.1066   14.0589 C.ar    1  UNL1        0.1445
      4 C          64.2333   84.7505   14.5867 C.ar    1  UNL1        0.0676
      5 C          63.8491   83.5196   13.8204 C.ar    1  UNL1        0.1566
      6 F          64.2128   82.1635   14.3483 F       1  UNL1       -0.2031
      7 C          63.1013   83.6449   12.5262 C.ar    1  UNL1        0.1196
      8 CL         62.7171   82.4140   11.7598 Cl      1  UNL1       -0.0767
      9 O          61.9898   85.1262   10.7040 O.3     1  UNL1       -0.4524
     10 C          62.0175   89.0491   10.1039 C.ar    1  UNL1        0.0723
     11 C          60.8896   89.1942    9.1257 C.ar    1  UNL1        0.0219
     12 C          60.1285   87.9833    8.6736 C.ar    1  UNL1        0.0614
     13 CL         59.0006   88.1284    7.6953 Cl      1  UNL1       -0.0821
     14 C          60.4952   86.6273    9.1997 C.ar    1  UNL1        0.0489
     15 C          61.6231   86.4822   10.1779 C.ar    1  UNL1        0.1469
     16 C          62.3842   87.6931   10.6300 C.ar    1  UNL1        0.0478
     17 N          63.5397   91.4710   11.0082 N.1     1  UNL1       -0.1908
     18 C          62.7786   90.2601   10.5561 C.1     1  UNL1        0.1005
     19 O          64.2538   87.3375   14.8252 O.3     1  UNL1       -0.4687
     20 C          64.1693   88.6850   14.1714 C.3     1  UNL1        0.2527
     21 C          64.2264   89.9291   15.0073 C.ar    1  UNL1        0.1271
     22 N          63.1342   90.4444   15.8971 N.ar    1  UNL1       -0.1472
     23 N          63.6186   91.7102   16.5399 N.ar    1  UNL1       -0.1305
     24 C          65.0100   91.9772   16.0474 C.ar    1  UNL1        0.1641
     25 N          65.9835   93.0805   16.3391 N.ar    1  UNL1       -0.3262
     26 C          67.3326   93.0830   15.6836 C.ar    1  UNL1        0.1037
     27 N          68.3062   94.1862   15.9753 N.pl3   1  UNL1       -0.3441
     28 C          67.7083   91.9822   14.7364 C.ar    1  UNL1        0.0321
     29 C          66.7348   90.8789   14.4447 C.ar    1  UNL1        0.0072
     30 C          65.3857   90.8764   15.1002 C.ar    1  UNL1        0.0547
     31 H          65.7369   93.8029   16.9608 H       1  UNL1        0.1686
     32 H          68.0597   94.9087   16.5970 H       1  UNL1        0.1437
     33 H          69.1917   94.1879   15.5450 H       1  UNL1        0.1437
@<TRIPOS>BOND
     1    17    18    3
     2    18    10    1
     3    10    11   ar
     4    11    12   ar
     5    12    13    1
     6    12    14   ar
     7    14    15   ar
     8    15     9    1
     9     9     1    1
    10     1     2   ar
    11     2     3   ar
    12     3    19    1
    13    19    20    1
    14    20    21    1
    15    21    22   ar
    16    22    23   ar
    17    23    24   ar
    18    24    25   ar
    19    25    26   ar
    20    26    27    1
    21    26    28   ar
    22    28    29   ar
    23    29    30   ar
    24     3     4   ar
    25     4     5   ar
    26     5     6    1
    27     5     7   ar
    28     7     8    1
    29    15    16   ar
    30    16    10   ar
    31     7     1   ar
    32    30    21   ar
    33    30    24    1
    34    25    31    1
    35    27    32    1
    36    27    33    1
@<TRIPOS>MOLECULE
*****
 33 36 0 0 0
SMALL
GASTEIGER

@<TRIPOS>ATOM
      1 C          61.1552   88.8813    9.5845 C.ar    1  UNL1        0.1610
      2 C          61.9549   87.8553   10.3315 C.ar    1  UNL1        0.0754
      3 C          61.7907   86.3988   10.0128 C.ar    1  UNL1        0.1445
      4 C          60.8268   85.9682    8.9472 C.ar    1  UNL1        0.0676
      5 C          60.0271   86.9941    8.2002 C.ar    1  UNL1        0.1566
      6 F          59.0633   86.5635    7.1346 F       1  UNL1       -0.2031
      7 C          60.1914   88.4506    8.5189 C.ar    1  UNL1        0.1196
      8 CL         59.3917   89.4766    7.7719 Cl      1  UNL1       -0.0767
      9 O          61.3194   90.3379    9.9031 O.3     1  UNL1       -0.4524
     10 C          63.5430   90.9045   13.1411 C.ar    1  UNL1        0.0723
     11 C          64.6830   91.6929   12.5677 C.ar    1  UNL1        0.0219
     12 C          64.7018   92.0297   11.1061 C.ar    1  UNL1        0.0614
     13 CL         65.8418   92.8181   10.5328 Cl      1  UNL1       -0.0821
     14 C          63.5806   91.5780   10.2179 C.ar    1  UNL1        0.0489
     15 C          62.4406   90.7896   10.7913 C.ar    1  UNL1        0.1469
     16 C          62.4217   90.4528   12.2529 C.ar    1  UNL1        0.0478
     17 N          63.5053   90.2310   16.0643 N.1     1  UNL1       -0.1908
     18 C          63.5241   90.5678   14.6027 C.1     1  UNL1        0.1005
     19 O          62.5904   85.3729   10.7598 O.3     1  UNL1       -0.4687
     20 C          63.1057   85.6792   12.1349 C.3     1  UNL1        0.2527
     21 C          62.8510   84.7223   13.2616 C.ar    1  UNL1        0.1271
     22 N          62.6620   85.0887   14.7038 N.ar    1  UNL1       -0.1472
     23 N          62.4348   83.8238   15.4774 N.ar    1  UNL1       -0.1305
     24 C          62.4832   82.6757   14.5133 C.ar    1  UNL1        0.1641
     25 N          62.3264   81.1964   14.7055 N.ar    1  UNL1       -0.3262
     26 C          62.4268   80.2724   13.5282 C.ar    1  UNL1        0.1037
     27 N          62.2699   78.7930   13.7203 N.pl3   1  UNL1       -0.3441
     28 C          62.6840   80.8277   12.1587 C.ar    1  UNL1        0.0321
     29 C          62.8408   82.3070   11.9665 C.ar    1  UNL1        0.0072
     30 C          62.7405   83.2310   13.1438 C.ar    1  UNL1        0.0547
     31 H          62.1576   80.8319   15.6043 H       1  UNL1        0.1686
     32 H          62.1011   78.4285   14.6192 H       1  UNL1        0.1437
     33 H          62.3358   78.1865   12.9476 H       1  UNL1        0.1437
@<TRIPOS>BOND
     1    17    18    3
     2    18    10    1
     3    10    11   ar
     4    11    12   ar
     5    12    13    1
     6    12    14   ar
     7    14    15   ar
     8    15     9    1
     9     9     1    1
    10     1     2   ar
    11     2     3   ar
    12     3    19    1
    13    19    20    1
    14    20    21    1
    15    21    22   ar
    16    22    23   ar
    17    23    24   ar
    18    24    25   ar
    19    25    26   ar
    20    26    27    1
    21    26    28   ar
    22    28    29   ar
    23    29    30   ar
    24     3     4   ar
    25     4     5   ar
    26     5     6    1
    27     5     7   ar
    28     7     8    1
    29    15    16   ar
    30    16    10   ar
    31     7     1   ar
    32    30    21   ar
    33    30    24    1
    34    25    31    1
    35    27    32    1
    36    27    33    1
