@<TRIPOS>MOLECULE
*****
 37 40 0 0 0
SMALL
GASTEIGER

@<TRIPOS>ATOM
      1 C          63.5195   90.4185   13.5655 C.3     1  UNL1        0.0815
      2 N          64.3615   91.4280   12.8430 N.3     1  UNL1       -0.2719
      3 C          65.3396   92.2720   13.6050 C.3     1  UNL1        0.0748
      4 C          66.1816   93.2815   12.8825 C.3     1  UNL1        0.0528
      5 C          66.0453   93.4470   11.3979 C.3     1  UNL1        0.1779
      6 O          67.1039   94.4721   11.6782 O.3     1  UNL1       -0.3786
      7 C          65.0671   92.6029   10.6358 C.3     1  UNL1        0.0528
      8 C          64.2252   91.5934   11.3583 C.3     1  UNL1        0.0748
      9 H          67.3027   94.4805   12.6276 H       1  UNL1        0.2106
     10 C          66.2767   93.9685   10.0106 C.3     1  UNL1        0.4194
     11 F          66.5081   94.4899    8.6234 F       1  UNL1       -0.1676
     12 F          65.3540   95.1179   10.2889 F       1  UNL1       -0.1676
     13 F          67.1994   92.8190    9.7324 F       1  UNL1       -0.1676
     14 C          62.4203   89.7012   12.8394 C.3     1  UNL1        0.1056
     15 O          60.2142   87.9103   11.8774 O.2     1  UNL1       -0.2748
     16 C          61.6361   87.6179   11.4997 C.2     1  UNL1        0.2254
     17 N          62.7392   88.5134   11.9807 N.am    1  UNL1       -0.3028
     18 H          63.6724   88.3215   11.7328 H       1  UNL1        0.1495
     19 C          61.9550   86.4301   10.6409 C.3     1  UNL1        0.0875
     20 C          62.1056   85.3948    9.5659 C.3     1  UNL1        0.0127
     21 C          62.9365   84.2734   10.1155 C.3     1  UNL1        0.0008
     22 C          63.2994   84.6156   11.5302 C.3     1  UNL1        0.0008
     23 C          62.6927   85.9485   11.8549 C.3     1  UNL1        0.0127
     24 C          61.1505   87.1600    9.6064 C.ar    1  UNL1       -0.0146
     25 C          61.2717   88.6494    9.4756 C.ar    1  UNL1       -0.0030
     26 C          60.4673   89.3793    8.4411 C.ar    1  UNL1        0.0111
     27 C          59.5417   88.6198    7.5374 C.ar    1  UNL1        0.0577
     28 CL         58.7373   89.3497    6.5030 Cl      1  UNL1       -0.0822
     29 C          59.4205   87.1304    7.6683 C.ar    1  UNL1        0.0111
     30 C          60.2250   86.4005    8.7028 C.ar    1  UNL1       -0.0030
     31 C          63.7768   90.1263   15.0141 C.3     1  UNL1        0.0440
     32 C          63.7175   88.7141   15.5164 C.ar    1  UNL1       -0.0208
     33 C          64.3870   87.6152   14.7457 C.ar    1  UNL1       -0.0042
     34 C          64.3277   86.2031   15.2481 C.ar    1  UNL1       -0.0003
     35 C          63.5988   85.8899   16.5211 C.ar    1  UNL1       -0.0000
     36 C          62.9292   86.9889   17.2918 C.ar    1  UNL1       -0.0003
     37 C          62.9886   88.4009   16.7895 C.ar    1  UNL1       -0.0042
@<TRIPOS>BOND
     1    15    16    2
     2    16    17   am
     3    17    14    1
     4     1    14    1
     5     1    31    1
     6    31    32    1
     7    32    33   ar
     8    33    34   ar
     9    34    35   ar
    10    35    36   ar
    11    36    37   ar
    12     1     2    1
    13     2     3    1
    14     3     4    1
    15     4     5    1
    16     5     6    1
    17     5    10    1
    18    10    11    1
    19    10    12    1
    20    10    13    1
    21     5     7    1
    22     7     8    1
    23    16    19    1
    24    19    24    1
    25    24    25   ar
    26    25    26   ar
    27    26    27   ar
    28    27    28    1
    29    27    29   ar
    30    29    30   ar
    31    19    20    1
    32    20    21    1
    33    21    22    1
    34    22    23    1
    35    37    32   ar
    36     8     2    1
    37    23    19    1
    38    30    24   ar
    39    17    18    1
    40     6     9    1
@<TRIPOS>MOLECULE
*****
 37 40 0 0 0
SMALL
GASTEIGER

@<TRIPOS>ATOM
      1 C          62.0386   87.4892   11.4507 C.3     1  UNL1        0.0815
      2 N          62.8270   88.6251   12.0322 N.3     1  UNL1       -0.2719
      3 C          62.8360   89.9597   11.3477 C.3     1  UNL1        0.0748
      4 C          63.6244   91.0956   11.9292 C.3     1  UNL1        0.0528
      5 C          64.4038   90.8968   13.1953 C.3     1  UNL1        0.1779
      6 O          64.7218   92.3361   12.9168 O.3     1  UNL1       -0.3786
      7 C          64.3948   89.5622   13.8799 C.3     1  UNL1        0.0528
      8 C          63.6064   88.4263   13.2984 C.3     1  UNL1        0.0748
      9 H          64.2737   92.6146   12.1029 H       1  UNL1        0.2106
     10 C          65.2936   91.1979   14.3647 C.3     1  UNL1        0.4194
     11 F          66.1834   91.4990   15.5342 F       1  UNL1       -0.1676
     12 F          66.4613   91.3532   13.4361 F       1  UNL1       -0.1676
     13 F          64.1258   91.0427   15.2933 F       1  UNL1       -0.1676
     14 C          62.7055   86.1722   11.1845 C.3     1  UNL1        0.1056
     15 O          64.4474   83.7349   11.0272 O.2     1  UNL1       -0.2748
     16 C          63.3122   83.7835   12.0065 C.2     1  UNL1        0.2254
     17 N          62.4412   85.0021   12.0851 N.am    1  UNL1       -0.3028
     18 H          61.6962   85.0340   12.7278 H       1  UNL1        0.1495
     19 C          63.0480   82.6134   12.9071 C.3     1  UNL1        0.0875
     20 C          62.8042   81.6568   14.0365 C.3     1  UNL1        0.0127
     21 C          62.6115   80.2889   13.4520 C.3     1  UNL1        0.0008
     22 C          62.7363   80.4000   11.9613 C.3     1  UNL1        0.0008
     23 C          63.0061   81.8367   11.6246 C.3     1  UNL1        0.0127
     24 C          63.1452   83.6347   14.0014 C.ar    1  UNL1       -0.0146
     25 C          64.3885   84.4609   14.1480 C.ar    1  UNL1       -0.0030
     26 C          64.4856   85.4822   15.2423 C.ar    1  UNL1        0.0111
     27 C          63.3394   85.6773   16.1901 C.ar    1  UNL1        0.0577
     28 CL         63.4365   86.6987   17.2843 Cl      1  UNL1       -0.0822
     29 C          62.0960   84.8511   16.0435 C.ar    1  UNL1        0.0111
     30 C          61.9989   83.8298   14.9491 C.ar    1  UNL1       -0.0030
     31 C          60.5834   87.6703   11.1353 C.3     1  UNL1        0.0440
     32 C          60.1403   87.8455    9.7129 C.ar    1  UNL1       -0.0208
     33 C          60.1658   89.2060    9.0817 C.ar    1  UNL1       -0.0042
     34 C          59.7227   89.3812    7.6594 C.ar    1  UNL1       -0.0003
     35 C          59.2543   88.1959    6.8683 C.ar    1  UNL1       -0.0000
     36 C          59.2288   86.8355    7.4996 C.ar    1  UNL1       -0.0003
     37 C          59.6718   86.6603    8.9219 C.ar    1  UNL1       -0.0042
@<TRIPOS>BOND
     1    15    16    2
     2    16    17   am
     3    17    14    1
     4     1    14    1
     5     1    31    1
     6    31    32    1
     7    32    33   ar
     8    33    34   ar
     9    34    35   ar
    10    35    36   ar
    11    36    37   ar
    12     1     2    1
    13     2     3    1
    14     3     4    1
    15     4     5    1
    16     5     6    1
    17     5    10    1
    18    10    11    1
    19    10    12    1
    20    10    13    1
    21     5     7    1
    22     7     8    1
    23    16    19    1
    24    19    24    1
    25    24    25   ar
    26    25    26   ar
    27    26    27   ar
    28    27    28    1
    29    27    29   ar
    30    29    30   ar
    31    19    20    1
    32    20    21    1
    33    21    22    1
    34    22    23    1
    35    37    32   ar
    36     8     2    1
    37    23    19    1
    38    30    24   ar
    39    17    18    1
    40     6     9    1
@<TRIPOS>MOLECULE
*****
 37 40 0 0 0
SMALL
GASTEIGER

@<TRIPOS>ATOM
      1 C          62.2666   86.2726   11.2105 C.3     1  UNL1        0.0815
      2 N          62.3903   85.0035   12.0006 N.3     1  UNL1       -0.2719
      3 C          62.4801   85.0574   13.4969 C.3     1  UNL1        0.0748
      4 C          62.6038   83.7883   14.2870 C.3     1  UNL1        0.0528
      5 C          62.6378   82.4655   13.5808 C.3     1  UNL1        0.1779
      6 O          62.7532   82.0042   15.0035 O.3     1  UNL1       -0.3786
      7 C          62.5480   82.4116   12.0844 C.3     1  UNL1        0.0528
      8 C          62.4243   83.6806   11.2943 C.3     1  UNL1        0.0748
      9 H          62.7447   82.7734   15.5944 H       1  UNL1        0.2106
     10 C          62.7118   80.9824   13.3686 C.3     1  UNL1        0.4194
     11 F          62.7858   79.4993   13.1565 F       1  UNL1       -0.1676
     12 F          64.2053   81.0723   13.2618 F       1  UNL1       -0.1676
     13 F          61.2183   80.8925   13.4755 F       1  UNL1       -0.1676
     14 C          62.1222   87.5865   11.9197 C.3     1  UNL1        0.1056
     15 O          62.1439   90.5035   12.6200 O.2     1  UNL1       -0.2748
     16 C          63.2991   89.6298   13.0103 C.2     1  UNL1        0.2254
     17 N          63.2882   88.1713   12.6601 N.am    1  UNL1       -0.3028
     18 H          64.0464   87.5979   12.9163 H       1  UNL1        0.1495
     19 C          64.4652   90.2147   13.7507 C.3     1  UNL1        0.0875
     20 C          65.5461   90.5993   14.7170 C.3     1  UNL1        0.0127
     21 C          66.3775   91.6727   14.0792 C.3     1  UNL1        0.0008
     22 C          65.8103   91.9515   12.7188 C.3     1  UNL1        0.0008
     23 C          64.6284   91.0504   12.5158 C.3     1  UNL1        0.0127
     24 C          64.0582   89.2568   14.8308 C.ar    1  UNL1       -0.0146
     25 C          64.4862   87.8209   14.7602 C.ar    1  UNL1       -0.0030
     26 C          64.0792   86.8630   15.8403 C.ar    1  UNL1        0.0111
     27 C          63.2441   87.3409   16.9911 C.ar    1  UNL1        0.0577
     28 CL         62.8370   86.3830   18.0712 Cl      1  UNL1       -0.0822
     29 C          62.8160   88.7768   17.0617 C.ar    1  UNL1        0.0111
     30 C          63.2231   89.7348   15.9815 C.ar    1  UNL1       -0.0030
     31 C          62.2874   86.2277    9.7114 C.3     1  UNL1        0.0440
     32 C          61.1867   86.8776    8.9263 C.ar    1  UNL1       -0.0208
     33 C          60.2623   86.0385    8.0948 C.ar    1  UNL1       -0.0042
     34 C          59.1617   86.6883    7.3098 C.ar    1  UNL1       -0.0003
     35 C          58.9855   88.1772    7.3562 C.ar    1  UNL1       -0.0000
     36 C          59.9099   89.0163    8.1876 C.ar    1  UNL1       -0.0003
     37 C          61.0105   88.3665    8.9727 C.ar    1  UNL1       -0.0042
@<TRIPOS>BOND
     1    15    16    2
     2    16    17   am
     3    17    14    1
     4     1    14    1
     5     1    31    1
     6    31    32    1
     7    32    33   ar
     8    33    34   ar
     9    34    35   ar
    10    35    36   ar
    11    36    37   ar
    12     1     2    1
    13     2     3    1
    14     3     4    1
    15     4     5    1
    16     5     6    1
    17     5    10    1
    18    10    11    1
    19    10    12    1
    20    10    13    1
    21     5     7    1
    22     7     8    1
    23    16    19    1
    24    19    24    1
    25    24    25   ar
    26    25    26   ar
    27    26    27   ar
    28    27    28    1
    29    27    29   ar
    30    29    30   ar
    31    19    20    1
    32    20    21    1
    33    21    22    1
    34    22    23    1
    35    37    32   ar
    36     8     2    1
    37    23    19    1
    38    30    24   ar
    39    17    18    1
    40     6     9    1
@<TRIPOS>MOLECULE
*****
 37 40 0 0 0
SMALL
GASTEIGER

@<TRIPOS>ATOM
      1 C          63.4080   85.3787   12.6147 C.3     1  UNL1        0.0815
      2 N          62.7849   85.4382   11.2516 N.3     1  UNL1       -0.2719
      3 C          61.5164   86.2102   11.0398 C.3     1  UNL1        0.0748
      4 C          60.8933   86.2698    9.6767 C.3     1  UNL1        0.0528
      5 C          61.5386   85.5573    8.5253 C.3     1  UNL1        0.1779
      6 O          60.3510   86.1538    7.8298 O.3     1  UNL1       -0.3786
      7 C          62.8072   84.7852    8.7370 C.3     1  UNL1        0.0528
      8 C          63.4303   84.7257   10.1001 C.3     1  UNL1        0.0748
      9 H          59.8231   86.6594    8.4674 H       1  UNL1        0.2106
     10 C          61.7716   85.0520    7.1323 C.3     1  UNL1        0.4194
     11 F          62.0045   84.5466    5.7393 F       1  UNL1       -0.1676
     12 F          63.2530   85.0989    7.3630 F       1  UNL1       -0.1676
     13 F          60.2902   85.0050    6.9015 F       1  UNL1       -0.1676
     14 C          63.3568   86.5769   13.5158 C.3     1  UNL1        0.1056
     15 O          63.2757   88.9683   15.3253 O.2     1  UNL1       -0.2748
     16 C          63.7923   89.1054   13.9238 C.2     1  UNL1        0.2254
     17 N          63.8328   87.9098   13.0190 N.am    1  UNL1       -0.3028
     18 H          64.1719   87.9998   12.0991 H       1  UNL1        0.1495
     19 C          64.2684   90.4384   13.4270 C.3     1  UNL1        0.0875
     20 C          64.5191   91.7348   12.7154 C.3     1  UNL1        0.0127
     21 C          65.6527   92.4318   13.4075 C.3     1  UNL1        0.0008
     22 C          66.1027   91.5662   14.5470 C.3     1  UNL1        0.0008
     23 C          65.2471   90.3341   14.5590 C.3     1  UNL1        0.0127
     24 C          63.1902   90.2639   12.3989 C.ar    1  UNL1       -0.0146
     25 C          61.7932   89.9247   12.8273 C.ar    1  UNL1       -0.0030
     26 C          60.7150   89.7503   11.7992 C.ar    1  UNL1        0.0111
     27 C          61.0338   89.9150   10.3426 C.ar    1  UNL1        0.0577
     28 CL         59.9556   89.7406    9.3145 Cl      1  UNL1       -0.0822
     29 C          62.4307   90.2542    9.9143 C.ar    1  UNL1        0.0111
     30 C          63.5090   90.4287   10.9425 C.ar    1  UNL1       -0.0030
     31 C          64.0823   84.1211   13.0769 C.3     1  UNL1        0.0440
     32 C          63.2962   82.8492   13.1970 C.ar    1  UNL1       -0.0208
     33 C          63.5291   81.7290   12.2270 C.ar    1  UNL1       -0.0042
     34 C          62.7430   80.4572   12.3472 C.ar    1  UNL1       -0.0003
     35 C          61.7240   80.3055   13.4374 C.ar    1  UNL1       -0.0000
     36 C          61.4911   81.4257   14.4074 C.ar    1  UNL1       -0.0003
     37 C          62.2772   82.6975   14.2873 C.ar    1  UNL1       -0.0042
@<TRIPOS>BOND
     1    15    16    2
     2    16    17   am
     3    17    14    1
     4     1    14    1
     5     1    31    1
     6    31    32    1
     7    32    33   ar
     8    33    34   ar
     9    34    35   ar
    10    35    36   ar
    11    36    37   ar
    12     1     2    1
    13     2     3    1
    14     3     4    1
    15     4     5    1
    16     5     6    1
    17     5    10    1
    18    10    11    1
    19    10    12    1
    20    10    13    1
    21     5     7    1
    22     7     8    1
    23    16    19    1
    24    19    24    1
    25    24    25   ar
    26    25    26   ar
    27    26    27   ar
    28    27    28    1
    29    27    29   ar
    30    29    30   ar
    31    19    20    1
    32    20    21    1
    33    21    22    1
    34    22    23    1
    35    37    32   ar
    36     8     2    1
    37    23    19    1
    38    30    24   ar
    39    17    18    1
    40     6     9    1
@<TRIPOS>MOLECULE
*****
 37 40 0 0 0
SMALL
GASTEIGER

@<TRIPOS>ATOM
      1 C          62.8072   89.5829   11.3792 C.3     1  UNL1        0.0815
      2 N          63.8079   90.5630   11.9159 N.3     1  UNL1       -0.2719
      3 C          64.3543   91.6401   11.0264 C.3     1  UNL1        0.0748
      4 C          65.3550   92.6202   11.5632 C.3     1  UNL1        0.0528
      5 C          65.8093   92.5231   12.9894 C.3     1  UNL1        0.1779
      6 O          66.6100   93.7097   12.5411 O.3     1  UNL1       -0.3786
      7 C          65.2629   91.4459   13.8789 C.3     1  UNL1        0.0528
      8 C          64.2622   90.4659   13.3422 C.3     1  UNL1        0.0748
      9 H          66.4153   93.8980   11.6097 H       1  UNL1        0.2106
     10 C          66.5417   92.8381   14.2600 C.3     1  UNL1        0.4194
     11 F          67.2741   93.1531   15.5305 F       1  UNL1       -0.1676
     12 F          66.2832   94.3002   14.0464 F       1  UNL1       -0.1676
     13 F          66.8003   91.3760   14.4734 F       1  UNL1       -0.1676
     14 C          62.2881   88.4838   12.2581 C.3     1  UNL1        0.1056
     15 O          61.1575   85.7736   11.6448 O.2     1  UNL1       -0.2748
     16 C          62.5513   85.9002   12.1845 C.2     1  UNL1        0.2254
     17 N          63.1166   87.2553   12.4912 N.am    1  UNL1       -0.3028
     18 H          64.0313   87.3384   12.8454 H       1  UNL1        0.1495
     19 C          63.3798   84.6716   12.4176 C.3     1  UNL1        0.0875
     20 C          64.1904   83.5282   12.9520 C.3     1  UNL1        0.0127
     21 C          64.6036   82.6711   11.7924 C.3     1  UNL1        0.0008
     22 C          64.0484   83.2848   10.5413 C.3     1  UNL1        0.0008
     23 C          63.2920   84.5212   10.9278 C.3     1  UNL1        0.0127
     24 C          63.2943   85.0788   13.8588 C.ar    1  UNL1       -0.0146
     25 C          64.2711   86.0710   14.4169 C.ar    1  UNL1       -0.0030
     26 C          64.1857   86.4782   15.8581 C.ar    1  UNL1        0.0111
     27 C          63.1235   85.8933   16.7411 C.ar    1  UNL1        0.0577
     28 CL         63.0381   86.3005   18.1822 Cl      1  UNL1       -0.0822
     29 C          62.1467   84.9011   16.1829 C.ar    1  UNL1        0.0111
     30 C          62.2322   84.4938   14.7417 C.ar    1  UNL1       -0.0030
     31 C          62.3257   89.7019    9.9636 C.3     1  UNL1        0.0440
     32 C          61.5457   88.5826    9.3400 C.ar    1  UNL1       -0.0208
     33 C          62.2359   87.3041    8.9675 C.ar    1  UNL1       -0.0042
     34 C          61.4559   86.1848    8.3440 C.ar    1  UNL1       -0.0003
     35 C          59.9856   86.3441    8.0931 C.ar    1  UNL1       -0.0000
     36 C          59.2954   87.6226    8.4656 C.ar    1  UNL1       -0.0003
     37 C          60.0754   88.7419    9.0891 C.ar    1  UNL1       -0.0042
@<TRIPOS>BOND
     1    15    16    2
     2    16    17   am
     3    17    14    1
     4     1    14    1
     5     1    31    1
     6    31    32    1
     7    32    33   ar
     8    33    34   ar
     9    34    35   ar
    10    35    36   ar
    11    36    37   ar
    12     1     2    1
    13     2     3    1
    14     3     4    1
    15     4     5    1
    16     5     6    1
    17     5    10    1
    18    10    11    1
    19    10    12    1
    20    10    13    1
    21     5     7    1
    22     7     8    1
    23    16    19    1
    24    19    24    1
    25    24    25   ar
    26    25    26   ar
    27    26    27   ar
    28    27    28    1
    29    27    29   ar
    30    29    30   ar
    31    19    20    1
    32    20    21    1
    33    21    22    1
    34    22    23    1
    35    37    32   ar
    36     8     2    1
    37    23    19    1
    38    30    24   ar
    39    17    18    1
    40     6     9    1
@<TRIPOS>MOLECULE
*****
 37 40 0 0 0
SMALL
GASTEIGER

@<TRIPOS>ATOM
      1 C          63.1498   88.9678   12.2752 C.3     1  UNL1        0.0815
      2 N          63.4531   87.6696   12.9625 N.3     1  UNL1       -0.2719
      3 C          64.2038   87.6659   14.2612 C.3     1  UNL1        0.0748
      4 C          64.5071   86.3676   14.9485 C.3     1  UNL1        0.0528
      5 C          64.0598   85.0730   14.3372 C.3     1  UNL1        0.1779
      6 O          64.7368   84.5575   15.5726 O.3     1  UNL1       -0.3786
      7 C          63.3091   85.0766   13.0385 C.3     1  UNL1        0.0528
      8 C          63.0057   86.3748   12.3512 C.3     1  UNL1        0.0748
      9 H          65.0868   85.3033   16.0845 H       1  UNL1        0.2106
     10 C          63.8475   83.5992   14.1549 C.3     1  UNL1        0.4194
     11 F          63.6353   82.1256   13.9726 F       1  UNL1       -0.1676
     12 F          62.9647   83.5765   15.3674 F       1  UNL1       -0.1676
     13 F          64.7304   83.6221   12.9424 F       1  UNL1       -0.1676
     14 C          62.9202   90.2095   13.0851 C.3     1  UNL1        0.1056
     15 O          64.6240   92.2275   11.6625 O.2     1  UNL1       -0.2748
     16 C          64.9183   91.8699   13.0892 C.2     1  UNL1        0.2254
     17 N          64.0663   90.8609   13.8005 N.am    1  UNL1       -0.3028
     18 H          64.2595   90.6262   14.7369 H       1  UNL1        0.1495
     19 C          66.0645   92.5214   13.8046 C.3     1  UNL1        0.0875
     20 C          67.2956   93.2641   14.2322 C.3     1  UNL1        0.0127
     21 C          67.4109   93.1505   15.7235 C.3     1  UNL1        0.0008
     22 C          66.2511   92.3375   16.2175 C.3     1  UNL1        0.0008
     23 C          65.4190   91.9487   15.0315 C.3     1  UNL1        0.0127
     24 C          66.4704   92.9579   12.4281 C.ar    1  UNL1       -0.0146
     25 C          67.2090   92.0117   11.5286 C.ar    1  UNL1       -0.0030
     26 C          67.6149   92.4482   10.1521 C.ar    1  UNL1        0.0111
     27 C          67.2822   93.8309    9.6751 C.ar    1  UNL1        0.0577
     28 CL         67.6881   94.2674    8.2986 Cl      1  UNL1       -0.0822
     29 C          66.5436   94.7771   10.5747 C.ar    1  UNL1        0.0111
     30 C          66.1377   94.3406   11.9512 C.ar    1  UNL1       -0.0030
     31 C          63.0760   89.0246   10.7781 C.3     1  UNL1        0.0440
     32 C          62.0351   88.2288   10.0478 C.ar    1  UNL1       -0.0208
     33 C          62.4281   86.9936    9.2930 C.ar    1  UNL1       -0.0042
     34 C          61.3872   86.1980    8.5627 C.ar    1  UNL1       -0.0003
     35 C          59.9533   86.6375    8.5872 C.ar    1  UNL1       -0.0000
     36 C          59.5602   87.8727    9.3420 C.ar    1  UNL1       -0.0003
     37 C          60.6011   88.6684   10.0723 C.ar    1  UNL1       -0.0042
@<TRIPOS>BOND
     1    15    16    2
     2    16    17   am
     3    17    14    1
     4     1    14    1
     5     1    31    1
     6    31    32    1
     7    32    33   ar
     8    33    34   ar
     9    34    35   ar
    10    35    36   ar
    11    36    37   ar
    12     1     2    1
    13     2     3    1
    14     3     4    1
    15     4     5    1
    16     5     6    1
    17     5    10    1
    18    10    11    1
    19    10    12    1
    20    10    13    1
    21     5     7    1
    22     7     8    1
    23    16    19    1
    24    19    24    1
    25    24    25   ar
    26    25    26   ar
    27    26    27   ar
    28    27    28    1
    29    27    29   ar
    30    29    30   ar
    31    19    20    1
    32    20    21    1
    33    21    22    1
    34    22    23    1
    35    37    32   ar
    36     8     2    1
    37    23    19    1
    38    30    24   ar
    39    17    18    1
    40     6     9    1
@<TRIPOS>MOLECULE
*****
 37 40 0 0 0
SMALL
GASTEIGER

@<TRIPOS>ATOM
      1 C          63.2398   89.1224   12.9764 C.3     1  UNL1        0.0815
      2 N          62.4657   88.7214   11.7558 N.3     1  UNL1       -0.2719
      3 C          61.7857   89.7666   10.9220 C.3     1  UNL1        0.0748
      4 C          61.0116   89.3656    9.7014 C.3     1  UNL1        0.0528
      5 C          60.9173   87.9195    9.3146 C.3     1  UNL1        0.1779
      6 O          60.1069   88.5369    8.2136 O.3     1  UNL1       -0.3786
      7 C          61.5973   86.8742   10.1484 C.3     1  UNL1        0.0528
      8 C          62.3714   87.2752   11.3690 C.3     1  UNL1        0.0748
      9 H          60.0777   89.4990    8.3341 H       1  UNL1        0.2106
     10 C          60.5416   86.6877    8.5454 C.3     1  UNL1        0.4194
     11 F          60.1659   85.4559    7.7763 F       1  UNL1       -0.1676
     12 F          61.9937   86.3766    8.3344 F       1  UNL1       -0.1676
     13 F          59.0895   86.9988    8.7564 F       1  UNL1       -0.1676
     14 C          63.0868   90.5036   13.5414 C.3     1  UNL1        0.1056
     15 O          64.9932   92.0526   11.8193 O.2     1  UNL1       -0.2748
     16 C          65.2179   91.9697   13.3001 C.2     1  UNL1        0.2254
     17 N          64.2647   91.1951   14.1611 N.am    1  UNL1       -0.3028
     18 H          64.4122   91.1407   15.1330 H       1  UNL1        0.1495
     19 C          66.3960   92.6613   13.9197 C.3     1  UNL1        0.0875
     20 C          67.6357   93.4407   14.2448 C.3     1  UNL1        0.0127
     21 C          67.8603   93.3580   15.7255 C.3     1  UNL1        0.0008
     22 C          66.7594   92.5275   16.3158 C.3     1  UNL1        0.0008
     23 C          65.8543   92.0969   15.1996 C.3     1  UNL1        0.0127
     24 C          66.6913   93.0811   12.5103 C.ar    1  UNL1       -0.0146
     25 C          67.4596   92.1682   11.6012 C.ar    1  UNL1       -0.0030
     26 C          67.7550   92.5880   10.1918 C.ar    1  UNL1        0.0111
     27 C          67.2820   93.9207    9.6914 C.ar    1  UNL1        0.0577
     28 CL         67.5774   94.3404    8.2819 Cl      1  UNL1       -0.0822
     29 C          66.5137   94.8336   10.6004 C.ar    1  UNL1        0.0111
     30 C          66.2184   94.4137   12.0100 C.ar    1  UNL1       -0.0030
     31 C          64.1670   88.1424   13.6320 C.3     1  UNL1        0.0440
     32 C          63.7969   87.5245   14.9478 C.ar    1  UNL1       -0.0208
     33 C          63.9002   86.0398   15.1347 C.ar    1  UNL1       -0.0042
     34 C          63.5302   85.4220   16.4505 C.ar    1  UNL1       -0.0003
     35 C          63.0567   86.2889   17.5794 C.ar    1  UNL1       -0.0000
     36 C          62.9534   87.7736   17.3925 C.ar    1  UNL1       -0.0003
     37 C          63.3235   88.3914   16.0767 C.ar    1  UNL1       -0.0042
@<TRIPOS>BOND
     1    15    16    2
     2    16    17   am
     3    17    14    1
     4     1    14    1
     5     1    31    1
     6    31    32    1
     7    32    33   ar
     8    33    34   ar
     9    34    35   ar
    10    35    36   ar
    11    36    37   ar
    12     1     2    1
    13     2     3    1
    14     3     4    1
    15     4     5    1
    16     5     6    1
    17     5    10    1
    18    10    11    1
    19    10    12    1
    20    10    13    1
    21     5     7    1
    22     7     8    1
    23    16    19    1
    24    19    24    1
    25    24    25   ar
    26    25    26   ar
    27    26    27   ar
    28    27    28    1
    29    27    29   ar
    30    29    30   ar
    31    19    20    1
    32    20    21    1
    33    21    22    1
    34    22    23    1
    35    37    32   ar
    36     8     2    1
    37    23    19    1
    38    30    24   ar
    39    17    18    1
    40     6     9    1
@<TRIPOS>MOLECULE
*****
 37 40 0 0 0
SMALL
GASTEIGER

@<TRIPOS>ATOM
      1 C          64.1241   91.0871   11.9064 C.3     1  UNL1        0.0815
      2 N          64.8711   91.5705   13.1140 N.3     1  UNL1       -0.2719
      3 C          64.2355   91.4915   14.4703 C.3     1  UNL1        0.0748
      4 C          64.9825   91.9749   15.6780 C.3     1  UNL1        0.0528
      5 C          66.3650   92.5373   15.5292 C.3     1  UNL1        0.1779
      6 O          66.1883   92.6696   17.0129 O.3     1  UNL1       -0.3786
      7 C          67.0007   92.6164   14.1728 C.3     1  UNL1        0.0528
      8 C          66.2537   92.1330   12.9652 C.3     1  UNL1        0.0748
      9 H          65.3132   92.3357   17.2653 H       1  UNL1        0.2106
     10 C          67.6863   93.1457   15.8958 C.3     1  UNL1        0.4194
     11 F          69.0075   93.7540   16.2623 F       1  UNL1       -0.1676
     12 F          67.4028   94.3070   14.9898 F       1  UNL1       -0.1676
     13 F          67.9697   91.9843   16.8018 F       1  UNL1       -0.1676
     14 C          63.3238   89.8204   11.9769 C.3     1  UNL1        0.1056
     15 O          60.6171   88.5268   11.9939 O.2     1  UNL1       -0.2748
     16 C          61.4243   88.5606   10.7300 C.2     1  UNL1        0.2254
     17 N          62.7776   89.2074   10.7215 N.am    1  UNL1       -0.3028
     18 H          63.3074   89.2296    9.8920 H       1  UNL1        0.1495
     19 C          60.8781   87.9476    9.4746 C.3     1  UNL1        0.0875
     20 C          60.4925   87.0817    8.3121 C.3     1  UNL1        0.0127
     21 C          59.6005   87.8844    7.4121 C.3     1  UNL1        0.0008
     22 C          59.4348   89.2464    8.0183 C.3     1  UNL1        0.0008
     23 C          60.2245   89.2854    9.2931 C.3     1  UNL1        0.0127
     24 C          61.6459   86.7379    9.9186 C.ar    1  UNL1       -0.0146
     25 C          61.5329   86.2558   11.3345 C.ar    1  UNL1       -0.0030
     26 C          62.3007   85.0461   11.7785 C.ar    1  UNL1        0.0111
     27 C          63.1816   84.3185   10.8065 C.ar    1  UNL1        0.0577
     28 CL         63.9494   83.1088   11.2505 Cl      1  UNL1       -0.0822
     29 C          63.2947   84.8006    9.3906 C.ar    1  UNL1        0.0111
     30 C          62.5268   86.0104    8.9466 C.ar    1  UNL1       -0.0030
     31 C          64.1775   91.8704   10.6282 C.3     1  UNL1        0.0440
     32 C          65.3644   92.7374   10.3289 C.ar    1  UNL1       -0.0208
     33 C          66.6544   92.1151    9.8832 C.ar    1  UNL1       -0.0042
     34 C          67.8413   92.9821    9.5839 C.ar    1  UNL1       -0.0003
     35 C          67.7382   94.4714    9.7302 C.ar    1  UNL1       -0.0000
     36 C          66.4482   95.0937   10.1759 C.ar    1  UNL1       -0.0003
     37 C          65.2613   94.2267   10.4752 C.ar    1  UNL1       -0.0042
@<TRIPOS>BOND
     1    15    16    2
     2    16    17   am
     3    17    14    1
     4     1    14    1
     5     1    31    1
     6    31    32    1
     7    32    33   ar
     8    33    34   ar
     9    34    35   ar
    10    35    36   ar
    11    36    37   ar
    12     1     2    1
    13     2     3    1
    14     3     4    1
    15     4     5    1
    16     5     6    1
    17     5    10    1
    18    10    11    1
    19    10    12    1
    20    10    13    1
    21     5     7    1
    22     7     8    1
    23    16    19    1
    24    19    24    1
    25    24    25   ar
    26    25    26   ar
    27    26    27   ar
    28    27    28    1
    29    27    29   ar
    30    29    30   ar
    31    19    20    1
    32    20    21    1
    33    21    22    1
    34    22    23    1
    35    37    32   ar
    36     8     2    1
    37    23    19    1
    38    30    24   ar
    39    17    18    1
    40     6     9    1
@<TRIPOS>MOLECULE
*****
 37 40 0 0 0
SMALL
GASTEIGER

@<TRIPOS>ATOM
      1 C          63.4245   90.1268   13.7556 C.3     1  UNL1        0.0815
      2 N          64.3471   91.0154   12.9751 N.3     1  UNL1       -0.2719
      3 C          65.6227   91.5024   13.5960 C.3     1  UNL1        0.0748
      4 C          66.5454   92.3909   12.8155 C.3     1  UNL1        0.0528
      5 C          66.1924   92.7925   11.4140 C.3     1  UNL1        0.1779
      6 O          67.5036   93.5049   11.5667 O.3     1  UNL1       -0.3786
      7 C          64.9167   92.3056   10.7930 C.3     1  UNL1        0.0528
      8 C          63.9941   91.4170   11.5736 C.3     1  UNL1        0.0748
      9 H          67.8638   93.3332   12.4508 H       1  UNL1        0.2106
     10 C          66.2947   93.4415   10.0655 C.3     1  UNL1        0.4194
     11 F          66.3971   94.0906    8.7172 F       1  UNL1       -0.1676
     12 F          67.3336   92.4379    9.6614 F       1  UNL1       -0.1676
     13 F          65.2558   94.4452   10.4697 F       1  UNL1       -0.1676
     14 C          62.1238   89.6831   13.1543 C.3     1  UNL1        0.1056
     15 O          59.6967   88.2310   12.1543 O.2     1  UNL1       -0.2748
     16 C          60.8722   88.4408   11.2465 C.2     1  UNL1        0.2254
     17 N          62.0858   89.1669   11.7465 N.am    1  UNL1       -0.3028
     18 H          62.8573   89.3046   11.1506 H       1  UNL1        0.1495
     19 C          60.8341   87.9246    9.8386 C.3     1  UNL1        0.0875
     20 C          60.9518   87.1641    8.5510 C.3     1  UNL1        0.0127
     21 C          60.2877   87.9702    7.4743 C.3     1  UNL1        0.0008
     22 C          59.7596   89.2288    8.0964 C.3     1  UNL1        0.0008
     23 C          60.0974   89.2006    9.5577 C.3     1  UNL1        0.0127
     24 C          61.5789   86.7565   10.4138 C.ar    1  UNL1       -0.0146
     25 C          62.4737   85.9319    9.5366 C.ar    1  UNL1       -0.0030
     26 C          63.2184   84.7638   10.1118 C.ar    1  UNL1        0.0111
     27 C          63.0684   84.4202   11.5642 C.ar    1  UNL1        0.0577
     28 CL         63.8131   83.2521   12.1394 Cl      1  UNL1       -0.0822
     29 C          62.1735   85.2447   12.4414 C.ar    1  UNL1        0.0111
     30 C          61.4288   86.4129   11.8661 C.ar    1  UNL1       -0.0030
     31 C          63.8025   89.6820   15.1373 C.3     1  UNL1        0.0440
     32 C          63.7862   88.2232   15.4863 C.ar    1  UNL1       -0.0208
     33 C          63.0702   87.7547   16.7183 C.ar    1  UNL1       -0.0042
     34 C          63.0539   86.2960   17.0673 C.ar    1  UNL1       -0.0003
     35 C          63.7536   85.3058   16.1843 C.ar    1  UNL1       -0.0000
     36 C          64.4696   85.7742   14.9522 C.ar    1  UNL1       -0.0003
     37 C          64.4859   87.2329   14.6033 C.ar    1  UNL1       -0.0042
@<TRIPOS>BOND
     1    15    16    2
     2    16    17   am
     3    17    14    1
     4     1    14    1
     5     1    31    1
     6    31    32    1
     7    32    33   ar
     8    33    34   ar
     9    34    35   ar
    10    35    36   ar
    11    36    37   ar
    12     1     2    1
    13     2     3    1
    14     3     4    1
    15     4     5    1
    16     5     6    1
    17     5    10    1
    18    10    11    1
    19    10    12    1
    20    10    13    1
    21     5     7    1
    22     7     8    1
    23    16    19    1
    24    19    24    1
    25    24    25   ar
    26    25    26   ar
    27    26    27   ar
    28    27    28    1
    29    27    29   ar
    30    29    30   ar
    31    19    20    1
    32    20    21    1
    33    21    22    1
    34    22    23    1
    35    37    32   ar
    36     8     2    1
    37    23    19    1
    38    30    24   ar
    39    17    18    1
    40     6     9    1
