@<TRIPOS>MOLECULE
*****
 28 31 0 0 0
SMALL
GASTEIGER

@<TRIPOS>ATOM
      1 C          65.0891   92.3587   12.4954 C.3     1  UNL1        0.2085
      2 S          64.4301   91.9401   11.2147 S.3     1  UNL1       -0.0753
      3 C          63.3323   90.9180   11.2352 C.ar    1  UNL1        0.0443
      4 C          62.6733   90.4994    9.9545 C.ar    1  UNL1        0.0077
      5 C          61.5755   89.4774    9.9750 C.ar    1  UNL1        0.0006
      6 C          61.1368   88.8740   11.2764 C.ar    1  UNL1        0.0015
      7 C          61.7959   89.2926   12.5571 C.ar    1  UNL1        0.0182
      8 C          62.8936   90.3146   12.5366 C.ar    1  UNL1        0.0768
      9 N          63.5527   90.7333   13.8174 N.ar    1  UNL1       -0.2242
     10 C          64.6504   91.7553   13.7968 C.ar    1  UNL1        0.2069
     11 N          65.1107   91.9697   15.2082 N.ar    1  UNL1       -0.0545
     12 O          64.2974   91.0802   16.1011 O.2     1  UNL1       -0.2950
     13 C          63.3345   90.3160   15.2415 C.ar    1  UNL1        0.4472
     14 O          62.3298   89.3111   15.7217 O.2     1  UNL1       -0.2203
     15 C          67.3665   94.9131    9.5734 C.ar    1  UNL1        0.1387
     16 C          67.4335   93.4179    9.4734 C.ar    1  UNL1        0.0367
     17 C          66.6743   92.5664   10.4475 C.ar    1  UNL1        0.0024
     18 C          65.8482   93.2101   11.5214 C.ar    1  UNL1        0.0191
     19 C          65.7814   94.7053   11.6213 C.ar    1  UNL1        0.0024
     20 C          66.5405   95.5567   10.6473 C.ar    1  UNL1        0.0367
     21 C          67.4209   96.8555    7.8489 C.3     1  UNL1        0.2525
     22 O          68.1257   95.7646    8.5993 O.3     1  UNL1       -0.4714
     23 O          66.0118   93.0730   13.4380 O.3     1  UNL1       -0.3293
     24 C          67.3513   92.4836   13.7672 C.3     1  UNL1        0.2470
     25 C          68.1995   93.1010   14.8393 C.3     1  UNL1        0.4249
     26 F          69.0476   93.7184   15.9113 F       1  UNL1       -0.1674
     27 F          67.2132   94.2232   14.9733 F       1  UNL1       -0.1674
     28 F          69.1856   91.9787   14.7052 F       1  UNL1       -0.1674
@<TRIPOS>BOND
     1    21    22    1
     2    22    15    1
     3    15    16   ar
     4    16    17   ar
     5    17    18   ar
     6    18     1    1
     7     1    23    1
     8    23    24    1
     9    24    25    1
    10    25    26    1
    11    25    27    1
    12    25    28    1
    13     1     2    1
    14     2     3    1
    15     3     4   ar
    16     4     5   ar
    17     5     6   ar
    18     6     7   ar
    19     7     8   ar
    20     8     9    1
    21     9    10   ar
    22    10    11   ar
    23    11    12   ar
    24    12    13   ar
    25    13    14    2
    26    18    19   ar
    27    19    20   ar
    28    20    15   ar
    29    10     1    1
    30     8     3   ar
    31    13     9   ar
@<TRIPOS>MOLECULE
*****
 28 31 0 0 0
SMALL
GASTEIGER

@<TRIPOS>ATOM
      1 C          62.7393   85.6998   11.5514 C.3     1  UNL1        0.2085
      2 S          61.8637   85.4703   10.3554 S.3     1  UNL1       -0.0753
      3 C          61.1938   86.6315    9.6823 C.ar    1  UNL1        0.0443
      4 C          60.3182   86.4020    8.4863 C.ar    1  UNL1        0.0077
      5 C          59.6484   87.5632    7.8133 C.ar    1  UNL1        0.0006
      6 C          59.8542   88.9539    8.3363 C.ar    1  UNL1        0.0015
      7 C          60.7299   89.1834    9.5324 C.ar    1  UNL1        0.0182
      8 C          61.3997   88.0222   10.2054 C.ar    1  UNL1        0.0768
      9 N          62.2754   88.2517   11.4014 N.ar    1  UNL1       -0.2242
     10 C          62.9452   87.0905   12.0744 C.ar    1  UNL1        0.2069
     11 N          63.7460   87.6214   13.2263 N.ar    1  UNL1       -0.0545
     12 O          63.5711   89.1106   13.2652 O.2     1  UNL1       -0.2950
     13 C          62.6622   89.5002   12.1373 C.ar    1  UNL1        0.4472
     14 O          62.2181   90.8936   11.8040 O.2     1  UNL1       -0.2203
     15 C          63.0746   81.2274   11.1841 C.ar    1  UNL1        0.1387
     16 C          63.8975   82.1163   10.2995 C.ar    1  UNL1        0.0367
     17 C          63.7858   83.6071   10.4219 C.ar    1  UNL1        0.0024
     18 C          62.8511   84.2091   11.4290 C.ar    1  UNL1        0.0191
     19 C          62.0282   83.3201   12.3135 C.ar    1  UNL1        0.0024
     20 C          62.1399   81.8293   12.1911 C.ar    1  UNL1        0.0367
     21 C          62.8576   79.0641    9.7618 C.3     1  UNL1        0.2525
     22 O          63.1863   79.7365   11.0617 O.3     1  UNL1       -0.4714
     23 O          63.6538   85.4116   12.7049 O.3     1  UNL1       -0.3293
     24 C          63.0843   84.9825   14.0246 C.3     1  UNL1        0.2470
     25 C          63.8555   84.0442   14.9049 C.3     1  UNL1        0.4249
     26 F          64.6267   83.1060   15.7852 F       1  UNL1       -0.1674
     27 F          62.5928   83.6891   15.6326 F       1  UNL1       -0.1674
     28 F          65.1181   84.3994   14.1772 F       1  UNL1       -0.1674
@<TRIPOS>BOND
     1    21    22    1
     2    22    15    1
     3    15    16   ar
     4    16    17   ar
     5    17    18   ar
     6    18     1    1
     7     1    23    1
     8    23    24    1
     9    24    25    1
    10    25    26    1
    11    25    27    1
    12    25    28    1
    13     1     2    1
    14     2     3    1
    15     3     4   ar
    16     4     5   ar
    17     5     6   ar
    18     6     7   ar
    19     7     8   ar
    20     8     9    1
    21     9    10   ar
    22    10    11   ar
    23    11    12   ar
    24    12    13   ar
    25    13    14    2
    26    18    19   ar
    27    19    20   ar
    28    20    15   ar
    29    10     1    1
    30     8     3   ar
    31    13     9   ar
@<TRIPOS>MOLECULE
*****
 28 31 0 0 0
SMALL
GASTEIGER

@<TRIPOS>ATOM
      1 C          63.2519   86.3911   12.9578 C.3     1  UNL1        0.2085
      2 S          62.3665   85.8772   11.8615 S.3     1  UNL1       -0.0753
      3 C          61.7859   86.8291   10.8580 C.ar    1  UNL1        0.0443
      4 C          60.9006   86.3152    9.7616 C.ar    1  UNL1        0.0077
      5 C          60.3200   87.2671    8.7582 C.ar    1  UNL1        0.0006
      6 C          60.6249   88.7329    8.8512 C.ar    1  UNL1        0.0015
      7 C          61.5102   89.2468    9.9475 C.ar    1  UNL1        0.0182
      8 C          62.0908   88.2949   10.9509 C.ar    1  UNL1        0.0768
      9 N          62.9762   88.8088   12.0474 N.ar    1  UNL1       -0.2242
     10 C          63.5567   87.8569   13.0508 C.ar    1  UNL1        0.2069
     11 N          64.3896   88.6498   14.0139 N.ar    1  UNL1       -0.0545
     12 O          64.3238   90.0916   13.6057 O.2     1  UNL1       -0.2950
     13 C          63.4502   90.1899   12.3903 C.ar    1  UNL1        0.4472
     14 O          63.1105   91.4484   11.6481 O.2     1  UNL1       -0.2203
     15 C          63.2609   81.9996   13.9398 C.ar    1  UNL1        0.1387
     16 C          62.2349   82.9037   14.5560 C.ar    1  UNL1        0.0367
     17 C          62.2318   84.3676   14.2287 C.ar    1  UNL1        0.0024
     18 C          63.2549   84.9273   13.2851 C.ar    1  UNL1        0.0191
     19 C          64.2808   84.0231   12.6689 C.ar    1  UNL1        0.0024
     20 C          64.2838   82.5593   12.9962 C.ar    1  UNL1        0.0367
     21 C          62.3940   79.5920   13.4909 C.3     1  UNL1        0.2525
     22 O          63.2639   80.5357   14.2670 O.3     1  UNL1       -0.4714
     23 O          64.1383   86.3967   14.1679 O.3     1  UNL1       -0.3293
     24 C          63.7714   87.2260   15.3627 C.3     1  UNL1        0.2470
     25 C          63.4415   86.5597   16.6655 C.3     1  UNL1        0.4249
     26 F          63.1115   85.8935   17.9683 F       1  UNL1       -0.1674
     27 F          62.5623   87.7175   17.0349 F       1  UNL1       -0.1674
     28 F          64.3207   85.4020   16.2960 F       1  UNL1       -0.1674
@<TRIPOS>BOND
     1    21    22    1
     2    22    15    1
     3    15    16   ar
     4    16    17   ar
     5    17    18   ar
     6    18     1    1
     7     1    23    1
     8    23    24    1
     9    24    25    1
    10    25    26    1
    11    25    27    1
    12    25    28    1
    13     1     2    1
    14     2     3    1
    15     3     4   ar
    16     4     5   ar
    17     5     6   ar
    18     6     7   ar
    19     7     8   ar
    20     8     9    1
    21     9    10   ar
    22    10    11   ar
    23    11    12   ar
    24    12    13   ar
    25    13    14    2
    26    18    19   ar
    27    19    20   ar
    28    20    15   ar
    29    10     1    1
    30     8     3   ar
    31    13     9   ar
@<TRIPOS>MOLECULE
*****
 28 31 0 0 0
SMALL
GASTEIGER

@<TRIPOS>ATOM
      1 C          62.7488   85.5533   11.8862 C.3     1  UNL1        0.2085
      2 S          62.8765   87.0044   11.5286 S.3     1  UNL1       -0.0753
      3 C          63.3287   87.9943   12.5610 C.ar    1  UNL1        0.0443
      4 C          63.4564   89.4454   12.2034 C.ar    1  UNL1        0.0077
      5 C          63.9086   90.4352   13.2358 C.ar    1  UNL1        0.0006
      6 C          64.2332   89.9738   14.6257 C.ar    1  UNL1        0.0015
      7 C          64.1055   88.5227   14.9832 C.ar    1  UNL1        0.0182
      8 C          63.6533   87.5329   13.9509 C.ar    1  UNL1        0.0768
      9 N          63.5256   86.0817   14.3084 N.ar    1  UNL1       -0.2242
     10 C          63.0734   85.0919   13.2761 C.ar    1  UNL1        0.2069
     11 N          63.0417   83.7359   13.9166 N.ar    1  UNL1       -0.0545
     12 O          63.4744   83.8877   15.3447 O.2     1  UNL1       -0.2950
     13 C          63.7734   85.3375   15.5869 C.ar    1  UNL1        0.4472
     14 O          64.2386   85.9377   16.8805 O.2     1  UNL1       -0.2203
     15 C          61.4903   85.4079    7.5682 C.ar    1  UNL1        0.1387
     16 C          60.5678   85.9877    8.5991 C.ar    1  UNL1        0.0367
     17 C          60.9873   86.0362   10.0384 C.ar    1  UNL1        0.0024
     18 C          62.3293   85.5048   10.4469 C.ar    1  UNL1        0.0191
     19 C          63.2517   84.9250    9.4159 C.ar    1  UNL1        0.0024
     20 C          62.8322   84.8765    7.9766 C.ar    1  UNL1        0.0367
     21 C          61.7243   84.3895    5.1895 C.3     1  UNL1        0.2525
     22 O          61.0708   85.3594    6.1288 O.3     1  UNL1       -0.4714
     23 O          62.4755   84.0853   11.7439 O.3     1  UNL1       -0.3293
     24 C          63.6069   83.1322   11.4961 C.3     1  UNL1        0.2470
     25 C          63.3412   81.8037   10.8523 C.3     1  UNL1        0.4249
     26 F          63.0755   80.4751   10.2085 F       1  UNL1       -0.1674
     27 F          62.1750   81.5915   11.7715 F       1  UNL1       -0.1674
     28 F          64.5075   82.0159    9.9332 F       1  UNL1       -0.1674
@<TRIPOS>BOND
     1    21    22    1
     2    22    15    1
     3    15    16   ar
     4    16    17   ar
     5    17    18   ar
     6    18     1    1
     7     1    23    1
     8    23    24    1
     9    24    25    1
    10    25    26    1
    11    25    27    1
    12    25    28    1
    13     1     2    1
    14     2     3    1
    15     3     4   ar
    16     4     5   ar
    17     5     6   ar
    18     6     7   ar
    19     7     8   ar
    20     8     9    1
    21     9    10   ar
    22    10    11   ar
    23    11    12   ar
    24    12    13   ar
    25    13    14    2
    26    18    19   ar
    27    19    20   ar
    28    20    15   ar
    29    10     1    1
    30     8     3   ar
    31    13     9   ar
@<TRIPOS>MOLECULE
*****
 28 31 0 0 0
SMALL
GASTEIGER

@<TRIPOS>ATOM
      1 C          61.9348   86.8936   10.8089 C.3     1  UNL1        0.2085
      2 S          62.0512   88.3518   11.1406 S.3     1  UNL1       -0.0753
      3 C          62.8562   88.7889   12.3285 C.ar    1  UNL1        0.0443
      4 C          62.9726   90.2471   12.6602 C.ar    1  UNL1        0.0077
      5 C          63.7775   90.6841   13.8480 C.ar    1  UNL1        0.0006
      6 C          64.4660   89.6629   14.7043 C.ar    1  UNL1        0.0015
      7 C          64.3495   88.2047   14.3726 C.ar    1  UNL1        0.0182
      8 C          63.5446   87.7677   13.1847 C.ar    1  UNL1        0.0768
      9 N          63.4282   86.3094   12.8530 N.ar    1  UNL1       -0.2242
     10 C          62.6233   85.8724   11.6651 C.ar    1  UNL1        0.2069
     11 N          62.6887   84.3759   11.5861 N.ar    1  UNL1       -0.0545
     12 O          63.5340   83.8881   12.7251 O.2     1  UNL1       -0.2950
     13 C          63.9910   85.0831   13.5081 C.ar    1  UNL1        0.4472
     14 O          64.8586   85.0564   14.7315 O.2     1  UNL1       -0.2203
     15 C          59.4481   88.6497    7.4949 C.ar    1  UNL1        0.1387
     16 C          59.3700   87.1820    7.7941 C.ar    1  UNL1        0.0367
     17 C          60.1989   86.5965    8.8987 C.ar    1  UNL1        0.0024
     18 C          61.1059   87.4790    9.7043 C.ar    1  UNL1        0.0191
     19 C          61.1839   88.9468    9.4051 C.ar    1  UNL1        0.0024
     20 C          60.3550   89.5321    8.3004 C.ar    1  UNL1        0.0367
     21 C          59.0726   90.4837    5.6934 C.3     1  UNL1        0.2525
     22 O          58.6192   89.2352    6.3903 O.3     1  UNL1       -0.4714
     23 O          61.5305   85.6387   10.0936 O.3     1  UNL1       -0.3293
     24 C          62.5601   84.8238    9.3684 C.3     1  UNL1        0.2470
     25 C          62.7734   85.0221    7.8970 C.3     1  UNL1        0.4249
     26 F          62.9867   85.2203    6.4255 F       1  UNL1       -0.1674
     27 F          61.6846   84.0323    7.6057 F       1  UNL1       -0.1674
     28 F          63.8622   86.0118    8.1883 F       1  UNL1       -0.1674
@<TRIPOS>BOND
     1    21    22    1
     2    22    15    1
     3    15    16   ar
     4    16    17   ar
     5    17    18   ar
     6    18     1    1
     7     1    23    1
     8    23    24    1
     9    24    25    1
    10    25    26    1
    11    25    27    1
    12    25    28    1
    13     1     2    1
    14     2     3    1
    15     3     4   ar
    16     4     5   ar
    17     5     6   ar
    18     6     7   ar
    19     7     8   ar
    20     8     9    1
    21     9    10   ar
    22    10    11   ar
    23    11    12   ar
    24    12    13   ar
    25    13    14    2
    26    18    19   ar
    27    19    20   ar
    28    20    15   ar
    29    10     1    1
    30     8     3   ar
    31    13     9   ar
@<TRIPOS>MOLECULE
*****
 28 31 0 0 0
SMALL
GASTEIGER

@<TRIPOS>ATOM
      1 C          62.5857   90.1205   12.2913 C.3     1  UNL1        0.2085
      2 S          63.3701   90.7637   11.1864 S.3     1  UNL1       -0.0753
      3 C          64.5333   91.6533   11.5118 C.ar    1  UNL1        0.0443
      4 C          65.3177   92.2964   10.4068 C.ar    1  UNL1        0.0077
      5 C          66.4808   93.1859   10.7322 C.ar    1  UNL1        0.0006
      6 C          66.8595   93.4323   12.1626 C.ar    1  UNL1        0.0015
      7 C          66.0751   92.7891   13.2675 C.ar    1  UNL1        0.0182
      8 C          64.9120   91.8996   12.9421 C.ar    1  UNL1        0.0768
      9 N          64.1275   91.2563   14.0471 N.ar    1  UNL1       -0.2242
     10 C          62.9644   90.3668   13.7217 C.ar    1  UNL1        0.2069
     11 N          62.3822   89.8741   15.0133 N.ar    1  UNL1       -0.0545
     12 O          63.1855   90.4590   16.1369 O.2     1  UNL1       -0.2950
     13 C          64.2642   91.3133   15.5397 C.ar    1  UNL1        0.4472
     14 O          65.2980   92.0885   16.3015 O.2     1  UNL1       -0.2203
     15 C          60.3645   88.5181    8.7208 C.ar    1  UNL1        0.1387
     16 C          61.3499   87.6482    9.4434 C.ar    1  UNL1        0.0367
     17 C          62.0903   88.1823   10.6336 C.ar    1  UNL1        0.0024
     18 C          61.8453   89.5864   11.1012 C.ar    1  UNL1        0.0191
     19 C          60.8600   90.4563   10.3785 C.ar    1  UNL1        0.0024
     20 C          60.1196   89.9222    9.1884 C.ar    1  UNL1        0.0367
     21 C          58.9894   86.6262    7.5897 C.3     1  UNL1        0.2525
     22 O          59.6241   87.9840    7.5306 O.3     1  UNL1       -0.4714
     23 O          61.5442   89.2918   12.9830 O.3     1  UNL1       -0.3293
     24 C          60.1273   89.7784   13.0591 C.3     1  UNL1        0.2470
     25 C          59.0402   88.8532   13.5196 C.3     1  UNL1        0.4249
     26 F          57.9530   87.9280   13.9801 F       1  UNL1       -0.1674
     27 F          58.8032   88.4259   12.1014 F       1  UNL1       -0.1674
     28 F          59.2773   89.2806   14.9377 F       1  UNL1       -0.1674
@<TRIPOS>BOND
     1    21    22    1
     2    22    15    1
     3    15    16   ar
     4    16    17   ar
     5    17    18   ar
     6    18     1    1
     7     1    23    1
     8    23    24    1
     9    24    25    1
    10    25    26    1
    11    25    27    1
    12    25    28    1
    13     1     2    1
    14     2     3    1
    15     3     4   ar
    16     4     5   ar
    17     5     6   ar
    18     6     7   ar
    19     7     8   ar
    20     8     9    1
    21     9    10   ar
    22    10    11   ar
    23    11    12   ar
    24    12    13   ar
    25    13    14    2
    26    18    19   ar
    27    19    20   ar
    28    20    15   ar
    29    10     1    1
    30     8     3   ar
    31    13     9   ar
@<TRIPOS>MOLECULE
*****
 28 31 0 0 0
SMALL
GASTEIGER

@<TRIPOS>ATOM
      1 C          63.7318   90.7052   13.2036 C.3     1  UNL1        0.2085
      2 S          63.9742   91.1824   11.8024 S.3     1  UNL1       -0.0753
      3 C          64.9750   92.2692   11.5427 C.ar    1  UNL1        0.0443
      4 C          65.2174   92.7464   10.1415 C.ar    1  UNL1        0.0077
      5 C          66.2182   93.8332    9.8819 C.ar    1  UNL1        0.0006
      6 C          66.9765   94.4427   11.0236 C.ar    1  UNL1        0.0015
      7 C          66.7341   93.9655   12.4248 C.ar    1  UNL1        0.0182
      8 C          65.7334   92.8788   12.6844 C.ar    1  UNL1        0.0768
      9 N          65.4909   92.4015   14.0857 N.ar    1  UNL1       -0.2242
     10 C          64.4902   91.3148   14.3452 C.ar    1  UNL1        0.2069
     11 N          64.4643   91.0516   15.8217 N.ar    1  UNL1       -0.0545
     12 O          65.4490   91.9757   16.4747 O.2     1  UNL1       -0.2950
     13 C          66.0835   92.8100   15.4017 C.ar    1  UNL1        0.4472
     14 O          67.1274   93.8672   15.6084 O.2     1  UNL1       -0.2203
     15 C          60.8576   88.0604   10.9690 C.ar    1  UNL1        0.1387
     16 C          62.2556   87.5888   11.2392 C.ar    1  UNL1        0.0367
     17 C          63.2138   88.4704   11.9840 C.ar    1  UNL1        0.0024
     18 C          62.7738   89.8236   12.4588 C.ar    1  UNL1        0.0191
     19 C          61.3757   90.2951   12.1886 C.ar    1  UNL1        0.0024
     20 C          60.4176   89.4135   11.4438 C.ar    1  UNL1        0.0367
     21 C          60.3071   86.5627    8.9187 C.3     1  UNL1        0.2525
     22 O          59.8994   87.1787   10.2242 O.3     1  UNL1       -0.4714
     23 O          63.1567   89.9218   14.3462 O.3     1  UNL1       -0.3293
     24 C          63.8557   88.6889   14.8374 C.3     1  UNL1        0.2470
     25 C          63.3588   87.9836   16.0644 C.3     1  UNL1        0.4249
     26 F          62.8620   87.2782   17.2915 F       1  UNL1       -0.1674
     27 F          64.2099   86.7956   15.7262 F       1  UNL1       -0.1674
     28 F          62.5078   89.1715   16.4026 F       1  UNL1       -0.1674
@<TRIPOS>BOND
     1    21    22    1
     2    22    15    1
     3    15    16   ar
     4    16    17   ar
     5    17    18   ar
     6    18     1    1
     7     1    23    1
     8    23    24    1
     9    24    25    1
    10    25    26    1
    11    25    27    1
    12    25    28    1
    13     1     2    1
    14     2     3    1
    15     3     4   ar
    16     4     5   ar
    17     5     6   ar
    18     6     7   ar
    19     7     8   ar
    20     8     9    1
    21     9    10   ar
    22    10    11   ar
    23    11    12   ar
    24    12    13   ar
    25    13    14    2
    26    18    19   ar
    27    19    20   ar
    28    20    15   ar
    29    10     1    1
    30     8     3   ar
    31    13     9   ar
@<TRIPOS>MOLECULE
*****
 28 31 0 0 0
SMALL
GASTEIGER

@<TRIPOS>ATOM
      1 C          62.0078   94.9515   -0.7841 C.3     1  UNL1        0.2085
      2 S          61.8320   94.8495   -2.2702 S.3     1  UNL1       -0.0753
      3 C          62.9443   95.2644   -3.1872 C.ar    1  UNL1        0.0443
      4 C          62.7685   95.1624   -4.6734 C.ar    1  UNL1        0.0077
      5 C          63.8807   95.5772   -5.5903 C.ar    1  UNL1        0.0006
      6 C          65.1687   96.0940   -5.0211 C.ar    1  UNL1        0.0015
      7 C          65.3445   96.1960   -3.5350 C.ar    1  UNL1        0.0182
      8 C          64.2323   95.7812   -2.6180 C.ar    1  UNL1        0.0768
      9 N          64.4080   95.8831   -1.1318 N.ar    1  UNL1       -0.2242
     10 C          63.2958   95.4683   -0.2149 C.ar    1  UNL1        0.2069
     11 N          63.7558   95.6798    1.1971 N.ar    1  UNL1       -0.0545
     12 O          65.1524   96.2254    1.1527 O.2     1  UNL1       -0.2950
     13 C          65.5554   96.3510   -0.2866 C.ar    1  UNL1        0.4472
     14 O          66.8744   96.8560   -0.7920 O.2     1  UNL1       -0.2203
     15 C          57.8221   93.3093   -0.9652 C.ar    1  UNL1        0.1387
     16 C          58.0467   94.7553   -0.6358 C.ar    1  UNL1        0.0367
     17 C          59.4420   95.3027   -0.5755 C.ar    1  UNL1        0.0024
     18 C          60.6126   94.4041   -0.8444 C.ar    1  UNL1        0.0191
     19 C          60.3878   92.9581   -1.1738 C.ar    1  UNL1        0.0024
     20 C          58.9926   92.4107   -1.2341 C.ar    1  UNL1        0.0367
     21 C          55.9716   92.0007   -2.2353 C.3     1  UNL1        0.2525
     22 O          56.4268   92.7618   -1.0255 O.3     1  UNL1       -0.4714
     23 O          61.6990   94.8633    0.6811 O.3     1  UNL1       -0.3293
     24 C          62.0064   93.6053    1.4381 C.3     1  UNL1        0.2470
     25 C          61.0999   93.1558    2.5455 C.3     1  UNL1        0.4249
     26 F          60.1935   92.7063    3.6529 F       1  UNL1       -0.1674
     27 F          60.2784   94.3996    2.3779 F       1  UNL1       -0.1674
     28 F          61.9216   91.9121    2.7130 F       1  UNL1       -0.1674
@<TRIPOS>BOND
     1    21    22    1
     2    22    15    1
     3    15    16   ar
     4    16    17   ar
     5    17    18   ar
     6    18     1    1
     7     1    23    1
     8    23    24    1
     9    24    25    1
    10    25    26    1
    11    25    27    1
    12    25    28    1
    13     1     2    1
    14     2     3    1
    15     3     4   ar
    16     4     5   ar
    17     5     6   ar
    18     6     7   ar
    19     7     8   ar
    20     8     9    1
    21     9    10   ar
    22    10    11   ar
    23    11    12   ar
    24    12    13   ar
    25    13    14    2
    26    18    19   ar
    27    19    20   ar
    28    20    15   ar
    29    10     1    1
    30     8     3   ar
    31    13     9   ar
@<TRIPOS>MOLECULE
*****
 28 31 0 0 0
SMALL
GASTEIGER

@<TRIPOS>ATOM
      1 C          62.3366   94.1812   -0.8812 C.3     1  UNL1        0.2085
      2 S          60.9481   93.7822   -1.2847 S.3     1  UNL1       -0.0753
      3 C          60.4914   93.9828   -2.6994 C.ar    1  UNL1        0.0443
      4 C          59.1029   93.5839   -3.1029 C.ar    1  UNL1        0.0077
      5 C          58.6462   93.7845   -4.5175 C.ar    1  UNL1        0.0006
      6 C          59.5780   94.3840   -5.5286 C.ar    1  UNL1        0.0015
      7 C          60.9665   94.7830   -5.1250 C.ar    1  UNL1        0.0182
      8 C          61.4232   94.5824   -3.7104 C.ar    1  UNL1        0.0768
      9 N          62.8117   94.9813   -3.3068 N.ar    1  UNL1       -0.2242
     10 C          63.2684   94.7807   -1.8922 C.ar    1  UNL1        0.2069
     11 N          64.6836   95.2670   -1.7887 N.ar    1  UNL1       -0.0545
     12 O          65.1015   95.7681   -3.1393 O.2     1  UNL1       -0.2950
     13 C          63.9446   95.5916   -4.0776 C.ar    1  UNL1        0.4472
     14 O          63.9242   95.9605   -5.5314 O.2     1  UNL1       -0.2203
     15 C          60.8028   92.6085    3.0462 C.ar    1  UNL1        0.1387
     16 C          59.9870   93.5937    2.2628 C.ar    1  UNL1        0.0367
     17 C          60.4982   94.1180    0.9536 C.ar    1  UNL1        0.0024
     18 C          61.8254   93.6569    0.4279 C.ar    1  UNL1        0.0191
     19 C          62.6411   92.6717    1.2114 C.ar    1  UNL1        0.0024
     20 C          62.1299   92.1475    2.5205 C.ar    1  UNL1        0.0367
     21 C          58.8149   91.9646    4.5900 C.3     1  UNL1        0.2525
     22 O          60.2916   92.0842    4.3553 O.3     1  UNL1       -0.4714
     23 O          63.5476   94.3981   -0.0230 O.3     1  UNL1       -0.3293
     24 C          63.6942   95.6691    0.7600 C.3     1  UNL1        0.2470
     25 C          64.5066   95.6839    2.0209 C.3     1  UNL1        0.4249
     26 F          65.3189   95.6987    3.2817 F       1  UNL1       -0.1674
     27 F          63.6315   96.7705    2.5719 F       1  UNL1       -0.1674
     28 F          65.3815   94.5973    1.4698 F       1  UNL1       -0.1674
@<TRIPOS>BOND
     1    21    22    1
     2    22    15    1
     3    15    16   ar
     4    16    17   ar
     5    17    18   ar
     6    18     1    1
     7     1    23    1
     8    23    24    1
     9    24    25    1
    10    25    26    1
    11    25    27    1
    12    25    28    1
    13     1     2    1
    14     2     3    1
    15     3     4   ar
    16     4     5   ar
    17     5     6   ar
    18     6     7   ar
    19     7     8   ar
    20     8     9    1
    21     9    10   ar
    22    10    11   ar
    23    11    12   ar
    24    12    13   ar
    25    13    14    2
    26    18    19   ar
    27    19    20   ar
    28    20    15   ar
    29    10     1    1
    30     8     3   ar
    31    13     9   ar
