@<TRIPOS>MOLECULE
*****
 26 28 0 0 0
SMALL
GASTEIGER

@<TRIPOS>ATOM
      1 S          64.3376   88.2092   14.6709 S.3     1  UNL1       -0.0724
      2 C          63.8803   86.8221   14.3292 C.ar    1  UNL1        0.1719
      3 N          63.6687   86.2789   12.9471 N.ar    1  UNL1       -0.2211
      4 C          63.2120   84.8556   13.0733 C.ar    1  UNL1        0.0992
      5 C          62.8514   83.8226   12.0473 C.ar    1  UNL1        0.0206
      6 C          62.4201   82.4531   12.4814 C.ar    1  UNL1        0.0016
      7 C          62.3495   82.1167   13.9415 C.ar    1  UNL1        0.0016
      8 C          62.7101   83.1498   14.9675 C.ar    1  UNL1        0.0188
      9 C          63.1414   84.5192   14.5334 C.ar    1  UNL1        0.0795
     10 N          63.5544   85.7346   15.3095 N.ar    1  UNL1       -0.3011
     11 C          63.6285   85.8433   16.8038 C.3     1  UNL1        0.1496
     12 C          62.4377   86.3204   17.5810 C.2     1  UNL1        0.0733
     13 O          62.6181   86.8813   18.9605 O.co2   1  UNL1       -0.5472
     14 O          61.0664   86.2366   16.9790 O.co2   1  UNL1       -0.5472
     15 C          63.4538   89.3845   14.3749 C.3     1  UNL1        0.0943
     16 C          62.8741   89.9877   11.9152 C.ar    1  UNL1        0.1355
     17 C          63.1160   90.8181   10.6897 C.ar    1  UNL1        0.0367
     18 C          64.1795   91.8758   10.6984 C.ar    1  UNL1        0.0059
     19 C          65.0012   92.1031   11.9326 C.ar    1  UNL1        0.0346
     20 C          64.7593   91.2727   13.1581 C.ar    1  UNL1        0.0024
     21 C          63.6957   90.2149   13.1494 C.ar    1  UNL1        0.0232
     22 C          66.0648   93.1608   11.9413 C.2     1  UNL1        0.1735
     23 C          65.9199   94.3773   11.0756 C.3     1  UNL1        0.0773
     24 O          67.2733   93.0021   12.8155 O.2     1  UNL1       -0.2913
     25 C          60.4146   89.2734   11.4780 C.3     1  UNL1        0.2525
     26 O          61.8105   88.9300   11.9065 O.3     1  UNL1       -0.4717
@<TRIPOS>UNITY_ATOM_ATTR
13 1
charge -1
@<TRIPOS>BOND
     1    25    26    1
     2    26    16    1
     3    16    17   ar
     4    17    18   ar
     5    18    19   ar
     6    19    22    1
     7    22    23    1
     8    22    24    2
     9    19    20   ar
    10    20    21   ar
    11    21    15    1
    12    15     1    1
    13     1     2    1
    14     2     3   ar
    15     3     4   ar
    16     4     5   ar
    17     5     6   ar
    18     6     7   ar
    19     7     8   ar
    20     8     9   ar
    21     9    10   ar
    22    10    11    1
    23    11    12    1
    24    12    13   ar
    25    12    14   ar
    26    21    16   ar
    27    10     2   ar
    28     9     4   ar
@<TRIPOS>MOLECULE
*****
 26 28 0 0 0
SMALL
GASTEIGER

@<TRIPOS>ATOM
      1 S          63.2406   91.0071   10.3622 S.3     1  UNL1       -0.0724
      2 C          64.0388   91.4375   11.5570 C.ar    1  UNL1        0.1719
      3 N          63.8874   90.9127   12.9540 N.ar    1  UNL1       -0.2211
      4 C          64.8835   91.6191   13.8251 C.ar    1  UNL1        0.0992
      5 C          65.1912   91.5111   15.2892 C.ar    1  UNL1        0.0206
      6 C          66.2660   92.3645   15.8946 C.ar    1  UNL1        0.0016
      7 C          67.0331   93.3259   15.0359 C.ar    1  UNL1        0.0016
      8 C          66.7254   93.4338   13.5718 C.ar    1  UNL1        0.0188
      9 C          65.6506   92.5804   12.9664 C.ar    1  UNL1        0.0795
     10 N          65.1285   92.4682   11.5647 N.ar    1  UNL1       -0.3011
     11 C          65.6114   93.2495   10.3788 C.3     1  UNL1        0.1496
     12 C          67.0709   93.2628   10.0331 C.2     1  UNL1        0.0733
     13 O          67.7893   94.5685    9.8621 O.co2   1  UNL1       -0.5472
     14 O          67.8122   91.9705    9.8585 O.co2   1  UNL1       -0.5472
     15 C          61.8734   90.4181   10.5461 C.3     1  UNL1        0.0943
     16 C          60.7708   88.4204    9.3037 C.ar    1  UNL1        0.1355
     17 C          60.5633   86.9431    9.1467 C.ar    1  UNL1        0.0367
     18 C          61.2508   85.9863   10.0750 C.ar    1  UNL1        0.0059
     19 C          62.1459   86.5067   11.1604 C.ar    1  UNL1        0.0346
     20 C          62.3535   87.9840   11.3174 C.ar    1  UNL1        0.0024
     21 C          61.6659   88.9408   10.3891 C.ar    1  UNL1        0.0232
     22 C          62.8335   85.5499   12.0887 C.2     1  UNL1        0.1735
     23 C          62.9057   84.0917   11.7441 C.3     1  UNL1        0.0773
     24 O          63.4488   86.0512   13.3615 O.2     1  UNL1       -0.2913
     25 C          59.3333   88.8585    7.1844 C.3     1  UNL1        0.2525
     26 O          60.0833   89.3772    8.3755 O.3     1  UNL1       -0.4717
@<TRIPOS>UNITY_ATOM_ATTR
13 1
charge -1
@<TRIPOS>BOND
     1    25    26    1
     2    26    16    1
     3    16    17   ar
     4    17    18   ar
     5    18    19   ar
     6    19    22    1
     7    22    23    1
     8    22    24    2
     9    19    20   ar
    10    20    21   ar
    11    21    15    1
    12    15     1    1
    13     1     2    1
    14     2     3   ar
    15     3     4   ar
    16     4     5   ar
    17     5     6   ar
    18     6     7   ar
    19     7     8   ar
    20     8     9   ar
    21     9    10   ar
    22    10    11    1
    23    11    12    1
    24    12    13   ar
    25    12    14   ar
    26    21    16   ar
    27    10     2   ar
    28     9     4   ar
@<TRIPOS>MOLECULE
*****
 26 28 0 0 0
SMALL
GASTEIGER

@<TRIPOS>ATOM
      1 S          62.3673   89.0397   10.8481 S.3     1  UNL1       -0.0724
      2 C          62.5696   87.6073   11.2449 C.ar    1  UNL1        0.1719
      3 N          63.0373   87.1211   12.5846 N.ar    1  UNL1       -0.2211
      4 C          63.0964   85.6230   12.5394 C.ar    1  UNL1        0.0992
      5 C          63.4872   84.6025   13.5669 C.ar    1  UNL1        0.0206
      6 C          63.4468   83.1422   13.2266 C.ar    1  UNL1        0.0016
      7 C          63.0156   82.7024   11.8589 C.ar    1  UNL1        0.0016
      8 C          62.6249   83.7229   10.8314 C.ar    1  UNL1        0.0188
      9 C          62.6653   85.1832   11.1717 C.ar    1  UNL1        0.0795
     10 N          62.3397   86.4096   10.3716 N.ar    1  UNL1       -0.3011
     11 C          61.8671   86.4339    8.9482 C.3     1  UNL1        0.1496
     12 C          60.4012   86.5322    8.6462 C.2     1  UNL1        0.0733
     13 O          59.5043   87.3398    9.5370 O.co2   1  UNL1       -0.5472
     14 O          59.8319   85.8229    7.4533 O.co2   1  UNL1       -0.5472
     15 C          62.2031   90.0939   11.9023 C.3     1  UNL1        0.0943
     16 C          63.6917   90.5656   13.9788 C.ar    1  UNL1        0.1355
     17 C          64.9006   91.2083   14.5915 C.ar    1  UNL1        0.0367
     18 C          65.8300   92.0219   13.7405 C.ar    1  UNL1        0.0059
     19 C          65.5504   92.1929   12.2767 C.ar    1  UNL1        0.0346
     20 C          64.3414   91.5503   11.6640 C.ar    1  UNL1        0.0024
     21 C          63.4121   90.7366   12.5151 C.ar    1  UNL1        0.0232
     22 C          66.4797   93.0066   11.4257 C.2     1  UNL1        0.1735
     23 C          67.2648   92.3472   10.3306 C.3     1  UNL1        0.0773
     24 O          66.6240   94.4795   11.6696 O.2     1  UNL1       -0.2913
     25 C          63.1357   89.4230   16.2449 C.3     1  UNL1        0.2525
     26 O          62.7623   89.7520   14.8298 O.3     1  UNL1       -0.4717
@<TRIPOS>UNITY_ATOM_ATTR
13 1
charge -1
@<TRIPOS>BOND
     1    25    26    1
     2    26    16    1
     3    16    17   ar
     4    17    18   ar
     5    18    19   ar
     6    19    22    1
     7    22    23    1
     8    22    24    2
     9    19    20   ar
    10    20    21   ar
    11    21    15    1
    12    15     1    1
    13     1     2    1
    14     2     3   ar
    15     3     4   ar
    16     4     5   ar
    17     5     6   ar
    18     6     7   ar
    19     7     8   ar
    20     8     9   ar
    21     9    10   ar
    22    10    11    1
    23    11    12    1
    24    12    13   ar
    25    12    14   ar
    26    21    16   ar
    27    10     2   ar
    28     9     4   ar
@<TRIPOS>MOLECULE
*****
 26 28 0 0 0
SMALL
GASTEIGER

@<TRIPOS>ATOM
      1 S          63.4289   91.1878   11.0669 S.3     1  UNL1       -0.0724
      2 C          64.3539   91.5980   12.1742 C.ar    1  UNL1        0.1719
      3 N          64.0883   91.4546   13.6435 N.ar    1  UNL1       -0.2211
      4 C          65.2771   91.9917   14.3840 C.ar    1  UNL1        0.0992
      5 C          65.5780   92.1093   15.8488 C.ar    1  UNL1        0.0206
      6 C          66.8792   92.7022   16.3019 C.ar    1  UNL1        0.0016
      7 C          67.8795   93.1775   15.2902 C.ar    1  UNL1        0.0016
      8 C          67.5786   93.0599   13.8254 C.ar    1  UNL1        0.0188
      9 C          66.2774   92.4670   13.3723 C.ar    1  UNL1        0.0795
     10 N          65.7068   92.2237   12.0066 N.ar    1  UNL1       -0.3011
     11 C          66.3723   92.5489   10.7023 C.3     1  UNL1        0.1496
     12 C          66.6337   93.9781   10.3294 C.2     1  UNL1        0.0733
     13 O          67.9584   94.3706    9.7452 O.co2   1  UNL1       -0.5472
     14 O          65.5704   95.0148   10.5407 O.co2   1  UNL1       -0.5472
     15 C          62.1012   90.5686   11.3893 C.3     1  UNL1        0.0943
     16 C          62.2918   87.9798   11.2829 C.ar    1  UNL1        0.1355
     17 C          61.9020   86.6731   10.6578 C.ar    1  UNL1        0.0367
     18 C          60.9318   86.6487    9.5141 C.ar    1  UNL1        0.0059
     19 C          60.3514   87.9310    8.9954 C.ar    1  UNL1        0.0346
     20 C          60.7412   89.2376    9.6205 C.ar    1  UNL1        0.0024
     21 C          61.7114   89.2620   10.7642 C.ar    1  UNL1        0.0232
     22 C          59.3812   87.9066    7.8517 C.2     1  UNL1        0.1735
     23 C          59.3242   89.0578    6.8917 C.3     1  UNL1        0.0773
     24 O          58.4679   86.7309    7.6679 O.2     1  UNL1       -0.2913
     25 C          63.5497   86.7472   13.1930 C.3     1  UNL1        0.2525
     26 O          63.2620   88.0042   12.4266 O.3     1  UNL1       -0.4717
@<TRIPOS>UNITY_ATOM_ATTR
13 1
charge -1
@<TRIPOS>BOND
     1    25    26    1
     2    26    16    1
     3    16    17   ar
     4    17    18   ar
     5    18    19   ar
     6    19    22    1
     7    22    23    1
     8    22    24    2
     9    19    20   ar
    10    20    21   ar
    11    21    15    1
    12    15     1    1
    13     1     2    1
    14     2     3   ar
    15     3     4   ar
    16     4     5   ar
    17     5     6   ar
    18     6     7   ar
    19     7     8   ar
    20     8     9   ar
    21     9    10   ar
    22    10    11    1
    23    11    12    1
    24    12    13   ar
    25    12    14   ar
    26    21    16   ar
    27    10     2   ar
    28     9     4   ar
@<TRIPOS>MOLECULE
*****
 26 28 0 0 0
SMALL
GASTEIGER

@<TRIPOS>ATOM
      1 S          62.8889   89.7296   12.1165 S.3     1  UNL1       -0.0724
      2 C          63.9088   90.6072   12.7796 C.ar    1  UNL1        0.1719
      3 N          64.4920   91.8665   12.2103 N.ar    1  UNL1       -0.2211
      4 C          65.4681   92.4173   13.2073 C.ar    1  UNL1        0.0992
      5 C          66.3413   93.6367   13.1888 C.ar    1  UNL1        0.0206
      6 C          67.2345   93.9373   14.3557 C.ar    1  UNL1        0.0016
      7 C          67.2545   93.0184   15.5411 C.ar    1  UNL1        0.0016
      8 C          66.3814   91.7990   15.5596 C.ar    1  UNL1        0.0188
      9 C          65.4882   91.4984   14.3927 C.ar    1  UNL1        0.0795
     10 N          64.5244   90.3797   14.1283 N.ar    1  UNL1       -0.3011
     11 C          64.2284   89.2346   15.0509 C.3     1  UNL1        0.1496
     12 C          63.3190   89.4346   16.2269 C.2     1  UNL1        0.0733
     13 O          63.1365   90.8049   16.8093 O.co2   1  UNL1       -0.5472
     14 O          62.5921   88.2645   16.8205 O.co2   1  UNL1       -0.5472
     15 C          62.7061   89.7842   10.6287 C.3     1  UNL1        0.0943
     16 C          60.4590   88.8628    9.7059 C.ar    1  UNL1        0.1355
     17 C          59.6871   87.7845    9.0050 C.ar    1  UNL1        0.0367
     18 C          60.3903   86.5492    8.5260 C.ar    1  UNL1        0.0059
     19 C          61.8655   86.3921    8.7480 C.ar    1  UNL1        0.0346
     20 C          62.6374   87.4705    9.4489 C.ar    1  UNL1        0.0024
     21 C          61.9342   88.7059    9.9278 C.ar    1  UNL1        0.0232
     22 C          62.5687   85.1568    8.2690 C.2     1  UNL1        0.1735
     23 C          62.4484   84.7337    6.8349 C.3     1  UNL1        0.0773
     24 O          63.3922   84.3446    9.2241 O.2     1  UNL1       -0.2913
     25 C          59.2899   90.1920   11.6076 C.3     1  UNL1        0.2525
     26 O          59.7559   90.0982   10.1849 O.3     1  UNL1       -0.4717
@<TRIPOS>UNITY_ATOM_ATTR
13 1
charge -1
@<TRIPOS>BOND
     1    25    26    1
     2    26    16    1
     3    16    17   ar
     4    17    18   ar
     5    18    19   ar
     6    19    22    1
     7    22    23    1
     8    22    24    2
     9    19    20   ar
    10    20    21   ar
    11    21    15    1
    12    15     1    1
    13     1     2    1
    14     2     3   ar
    15     3     4   ar
    16     4     5   ar
    17     5     6   ar
    18     6     7   ar
    19     7     8   ar
    20     8     9   ar
    21     9    10   ar
    22    10    11    1
    23    11    12    1
    24    12    13   ar
    25    12    14   ar
    26    21    16   ar
    27    10     2   ar
    28     9     4   ar
@<TRIPOS>MOLECULE
*****
 26 28 0 0 0
SMALL
GASTEIGER

@<TRIPOS>ATOM
      1 S          63.2610   90.9217   11.3802 S.3     1  UNL1       -0.0724
      2 C          64.2277   91.4291   12.4088 C.ar    1  UNL1        0.1719
      3 N          64.0696   91.3208   13.8966 N.ar    1  UNL1       -0.2211
      4 C          65.2664   91.9587   14.5376 C.ar    1  UNL1        0.0992
      5 C          65.6546   92.1469   15.9741 C.ar    1  UNL1        0.0206
      6 C          66.9406   92.8376   16.3192 C.ar    1  UNL1        0.0016
      7 C          67.8384   93.3401   15.2276 C.ar    1  UNL1        0.0016
      8 C          67.4501   93.1520   13.7910 C.ar    1  UNL1        0.0188
      9 C          66.1641   92.4613   13.4460 C.ar    1  UNL1        0.0795
     10 N          65.5222   92.1340   12.1304 N.ar    1  UNL1       -0.3011
     11 C          66.0773   92.4551   10.7744 C.3     1  UNL1        0.1496
     12 C          66.6252   93.8227   10.4929 C.2     1  UNL1        0.0733
     13 O          68.0068   93.9757    9.9292 O.co2   1  UNL1       -0.5472
     14 O          65.7916   95.0374   10.7751 O.co2   1  UNL1       -0.5472
     15 C          62.2937   89.8312   11.7336 C.3     1  UNL1        0.0943
     16 C          60.4875   89.3303    9.9345 C.ar    1  UNL1        0.1355
     17 C          59.9354   88.4404    8.8605 C.ar    1  UNL1        0.0367
     18 C          60.6374   87.1616    8.5118 C.ar    1  UNL1        0.0059
     19 C          61.8916   86.7725    9.2370 C.ar    1  UNL1        0.0346
     20 C          62.4436   87.6624   10.3109 C.ar    1  UNL1        0.0024
     21 C          61.7416   88.9413   10.6596 C.ar    1  UNL1        0.0232
     22 C          62.5935   85.4937    8.8882 C.2     1  UNL1        0.1735
     23 C          62.6215   85.0171    7.4661 C.3     1  UNL1        0.0773
     24 O          63.2676   84.6913    9.9614 O.2     1  UNL1       -0.2913
     25 C          59.0182   90.7174   11.5677 C.3     1  UNL1        0.2525
     26 O          59.7855   90.6092   10.2832 O.3     1  UNL1       -0.4717
@<TRIPOS>UNITY_ATOM_ATTR
13 1
charge -1
@<TRIPOS>BOND
     1    25    26    1
     2    26    16    1
     3    16    17   ar
     4    17    18   ar
     5    18    19   ar
     6    19    22    1
     7    22    23    1
     8    22    24    2
     9    19    20   ar
    10    20    21   ar
    11    21    15    1
    12    15     1    1
    13     1     2    1
    14     2     3   ar
    15     3     4   ar
    16     4     5   ar
    17     5     6   ar
    18     6     7   ar
    19     7     8   ar
    20     8     9   ar
    21     9    10   ar
    22    10    11    1
    23    11    12    1
    24    12    13   ar
    25    12    14   ar
    26    21    16   ar
    27    10     2   ar
    28     9     4   ar
@<TRIPOS>MOLECULE
*****
 26 28 0 0 0
SMALL
GASTEIGER

@<TRIPOS>ATOM
      1 S          62.1111   89.7932   12.2614 S.3     1  UNL1       -0.0724
      2 C          63.3394   90.5394   12.6909 C.ar    1  UNL1        0.1719
      3 N          63.9266   91.7386   12.0075 N.ar    1  UNL1       -0.2211
      4 C          65.1463   92.1578   12.7734 C.ar    1  UNL1        0.0992
      5 C          66.1267   93.2741   12.5670 C.ar    1  UNL1        0.0206
      6 C          67.2737   93.4501   13.5173 C.ar    1  UNL1        0.0016
      7 C          67.4404   92.5099   14.6741 C.ar    1  UNL1        0.0016
      8 C          66.4600   91.3936   14.8806 C.ar    1  UNL1        0.0188
      9 C          65.3130   91.2175   13.9302 C.ar    1  UNL1        0.0795
     10 N          64.1963   90.2173   13.8792 N.ar    1  UNL1       -0.3011
     11 C          63.9753   89.0925   14.8467 C.3     1  UNL1        0.1496
     12 C          63.2798   89.3503   16.1504 C.2     1  UNL1        0.0733
     13 O          63.2877   90.7273   16.7453 O.co2   1  UNL1       -0.5472
     14 O          62.5763   88.2312   16.8593 O.co2   1  UNL1       -0.5472
     15 C          61.7971   89.6423   10.8025 C.3     1  UNL1        0.0943
     16 C          60.7181   88.0875    9.0225 C.ar    1  UNL1        0.1355
     17 C          60.5323   86.7208    8.4328 C.ar    1  UNL1        0.0367
     18 C          61.2399   85.5424    9.0332 C.ar    1  UNL1        0.0059
     19 C          62.1332   85.7305   10.2235 C.ar    1  UNL1        0.0346
     20 C          62.3189   87.0971   10.8132 C.ar    1  UNL1        0.0024
     21 C          61.6113   88.2756   10.2127 C.ar    1  UNL1        0.0232
     22 C          62.8407   84.5520   10.8239 C.2     1  UNL1        0.1735
     23 C          63.7278   83.6950    9.9702 C.3     1  UNL1        0.0773
     24 O          62.6613   84.2305   12.2780 O.2     1  UNL1       -0.2913
     25 C          59.4110   89.1620    7.0510 C.3     1  UNL1        0.2525
     26 O          60.0105   89.2659    8.4221 O.3     1  UNL1       -0.4717
@<TRIPOS>UNITY_ATOM_ATTR
13 1
charge -1
@<TRIPOS>BOND
     1    25    26    1
     2    26    16    1
     3    16    17   ar
     4    17    18   ar
     5    18    19   ar
     6    19    22    1
     7    22    23    1
     8    22    24    2
     9    19    20   ar
    10    20    21   ar
    11    21    15    1
    12    15     1    1
    13     1     2    1
    14     2     3   ar
    15     3     4   ar
    16     4     5   ar
    17     5     6   ar
    18     6     7   ar
    19     7     8   ar
    20     8     9   ar
    21     9    10   ar
    22    10    11    1
    23    11    12    1
    24    12    13   ar
    25    12    14   ar
    26    21    16   ar
    27    10     2   ar
    28     9     4   ar
@<TRIPOS>MOLECULE
*****
 26 28 0 0 0
SMALL
GASTEIGER

@<TRIPOS>ATOM
      1 S          61.8922   89.2505   11.4871 S.3     1  UNL1       -0.0724
      2 C          62.9845   90.2684   11.6309 C.ar    1  UNL1        0.1719
      3 N          63.3676   91.3004   10.6120 N.ar    1  UNL1       -0.2211
      4 C          64.5054   92.1029   11.1701 C.ar    1  UNL1        0.0992
      5 C          65.2912   93.2525   10.6127 C.ar    1  UNL1        0.0206
      6 C          66.3972   93.8660   11.4191 C.ar    1  UNL1        0.0016
      7 C          66.7173   93.3299   12.7830 C.ar    1  UNL1        0.0016
      8 C          65.9314   92.1803   13.3405 C.ar    1  UNL1        0.0188
      9 C          64.8254   91.5668   12.5340 C.ar    1  UNL1        0.0795
     10 N          63.8855   90.4331   12.8187 N.ar    1  UNL1       -0.3011
     11 C          63.8524   89.6087   14.0715 C.3     1  UNL1        0.1496
     12 C          63.2144   90.1567   15.3134 C.2     1  UNL1        0.0733
     13 O          63.6276   91.4995   15.8390 O.co2   1  UNL1       -0.5472
     14 O          62.1630   89.3621   16.0298 O.co2   1  UNL1       -0.5472
     15 C          61.9857   88.1949   10.4255 C.3     1  UNL1        0.0943
     16 C          62.4310   85.7294    9.7381 C.ar    1  UNL1        0.1355
     17 C          62.8250   84.3293   10.1051 C.ar    1  UNL1        0.0367
     18 C          63.1677   83.9948   11.5266 C.ar    1  UNL1        0.0059
     19 C          63.1163   85.0604   12.5811 C.ar    1  UNL1        0.0346
     20 C          62.7223   86.4604   12.2141 C.ar    1  UNL1        0.0024
     21 C          62.3797   86.7949   10.7925 C.ar    1  UNL1        0.0232
     22 C          63.4589   84.7259   14.0026 C.2     1  UNL1        0.1735
     23 C          64.5648   85.4609   14.7004 C.3     1  UNL1        0.0773
     24 O          62.6957   83.6565   14.7264 O.2     1  UNL1       -0.2913
     25 C          60.6640   85.9926    7.8517 C.3     1  UNL1        0.2525
     26 O          62.0884   86.0639    8.3166 O.3     1  UNL1       -0.4717
@<TRIPOS>UNITY_ATOM_ATTR
13 1
charge -1
@<TRIPOS>BOND
     1    25    26    1
     2    26    16    1
     3    16    17   ar
     4    17    18   ar
     5    18    19   ar
     6    19    22    1
     7    22    23    1
     8    22    24    2
     9    19    20   ar
    10    20    21   ar
    11    21    15    1
    12    15     1    1
    13     1     2    1
    14     2     3   ar
    15     3     4   ar
    16     4     5   ar
    17     5     6   ar
    18     6     7   ar
    19     7     8   ar
    20     8     9   ar
    21     9    10   ar
    22    10    11    1
    23    11    12    1
    24    12    13   ar
    25    12    14   ar
    26    21    16   ar
    27    10     2   ar
    28     9     4   ar
@<TRIPOS>MOLECULE
*****
 26 28 0 0 0
SMALL
GASTEIGER

@<TRIPOS>ATOM
      1 S          63.8769   88.5757   14.9019 S.3     1  UNL1       -0.0724
      2 C          64.3088   89.7474   14.0708 C.ar    1  UNL1        0.1719
      3 N          65.2828   90.8105   14.4844 N.ar    1  UNL1       -0.2211
      4 C          65.4184   91.7819   13.3494 C.ar    1  UNL1        0.0992
      5 C          66.2375   93.0279   13.1872 C.ar    1  UNL1        0.0206
      6 C          66.1664   93.8112   11.9100 C.ar    1  UNL1        0.0016
      7 C          65.2762   93.3484   10.7949 C.ar    1  UNL1        0.0016
      8 C          64.4571   92.1023   10.9571 C.ar    1  UNL1        0.0188
      9 C          64.5282   91.3190   12.2344 C.ar    1  UNL1        0.0795
     10 N          63.8424   90.0617   12.6802 N.ar    1  UNL1       -0.3011
     11 C          62.8624   89.2595   11.8765 C.3     1  UNL1        0.1496
     12 C          61.4685   89.7715   11.6654 C.2     1  UNL1        0.0733
     13 O          60.4175   89.5385   12.7101 O.co2   1  UNL1       -0.5472
     14 O          61.1252   90.5165   10.4095 O.co2   1  UNL1       -0.5472
     15 C          64.6640   87.2994   14.8651 C.3     1  UNL1        0.0943
     16 C          63.4075   85.2493   15.8492 C.ar    1  UNL1        0.1355
     17 C          62.7036   83.9396   15.6516 C.ar    1  UNL1        0.0367
     18 C          62.5522   83.3701   14.2722 C.ar    1  UNL1        0.0059
     19 C          63.1048   84.1104   13.0904 C.ar    1  UNL1        0.0346
     20 C          63.8087   85.4201   13.2880 C.ar    1  UNL1        0.0024
     21 C          63.9601   85.9896   14.6675 C.ar    1  UNL1        0.0232
     22 C          62.9535   83.5409   11.7110 C.2     1  UNL1        0.1735
     23 C          62.8523   82.0566   11.5193 C.3     1  UNL1        0.0773
     24 O          62.9033   84.4556   10.5232 O.2     1  UNL1       -0.2913
     25 C          62.4442   86.6175   17.8368 C.3     1  UNL1        0.2525
     26 O          63.5588   85.8188   17.2286 O.3     1  UNL1       -0.4717
@<TRIPOS>UNITY_ATOM_ATTR
13 1
charge -1
@<TRIPOS>BOND
     1    25    26    1
     2    26    16    1
     3    16    17   ar
     4    17    18   ar
     5    18    19   ar
     6    19    22    1
     7    22    23    1
     8    22    24    2
     9    19    20   ar
    10    20    21   ar
    11    21    15    1
    12    15     1    1
    13     1     2    1
    14     2     3   ar
    15     3     4   ar
    16     4     5   ar
    17     5     6   ar
    18     6     7   ar
    19     7     8   ar
    20     8     9   ar
    21     9    10   ar
    22    10    11    1
    23    11    12    1
    24    12    13   ar
    25    12    14   ar
    26    21    16   ar
    27    10     2   ar
    28     9     4   ar
