@<TRIPOS>MOLECULE
*****
 30 34 0 0 0
SMALL
GASTEIGER

@<TRIPOS>ATOM
      1 C          63.5019   84.8372   13.2072 C.ar    1  UNL1        0.1389
      2 C          63.5526   86.3325   13.1002 C.ar    1  UNL1        0.0397
      3 C          62.8648   87.0266   11.9622 C.ar    1  UNL1        0.0350
      4 C          62.1263   86.2256   10.9313 C.ar    1  UNL1        0.0778
      5 C          62.0756   84.7303   11.0383 C.ar    1  UNL1        0.0219
      6 C          62.7634   84.0361   12.1763 C.ar    1  UNL1        0.0394
      7 N          61.4384   86.9197    9.7933 N.2     1  UNL1       -0.2641
      8 C          61.4891   88.4150    9.6862 C.3     1  UNL1        0.1696
      9 C          62.2276   89.2162   10.7172 C.2     1  UNL1        0.0908
     10 N          62.4485   90.6917   10.8728 N.am    1  UNL1       -0.1630
     11 C          63.2727   90.9093   12.1069 C.2     1  UNL1        0.3314
     12 O          63.7283   92.2352   12.6403 O.2     1  UNL1       -0.2501
     13 N          63.5614   89.5685   12.7141 N.am    1  UNL1       -0.2347
     14 C          62.9155   88.5220   11.8551 C.2     1  UNL1        0.0704
     15 C          62.7127   82.5407   12.2834 C.ar    1  UNL1        0.0526
     16 C          62.0957   81.7574   13.4039 C.ar    1  UNL1        0.1007
     17 C          61.4211   82.3318   14.6142 C.3     1  UNL1        0.0557
     18 N          62.2718   80.2987   13.1017 N.ar    1  UNL1       -0.0817
     19 O          62.9976   80.1806   11.7943 O.2     1  UNL1       -0.3581
     20 C          63.2701   81.5662   11.2886 C.ar    1  UNL1        0.1545
     21 C          63.9761   81.9159   10.0121 C.3     1  UNL1        0.0754
     22 C          64.0612   84.6808   15.7395 C.3     1  UNL1        0.2525
     23 O          64.1897   84.1430   14.3452 O.3     1  UNL1       -0.4714
     24 C          64.3563   89.3179   13.9612 C.3     1  UNL1        0.1454
     25 C          64.9618   90.4689   14.7086 C.ar    1  UNL1        0.0795
     26 C          66.3505   90.9300   14.3787 C.ar    1  UNL1        0.0165
     27 C          66.9561   92.0809   15.1260 C.ar    1  UNL1        0.0029
     28 C          66.1728   92.7710   16.2033 C.ar    1  UNL1        0.0207
     29 C          64.7841   92.3100   16.5331 C.ar    1  UNL1        0.0985
     30 N          64.1785   91.1590   15.7858 N.ar    1  UNL1       -0.2464
@<TRIPOS>BOND
     1    22    23    1
     2    23     1    1
     3     1     2   ar
     4     2     3   ar
     5     3     4   ar
     6     4     5   ar
     7     5     6   ar
     8     6    15    1
     9    15    16   ar
    10    16    17    1
    11    16    18   ar
    12    18    19   ar
    13    19    20   ar
    14    20    21    1
    15     4     7    2
    16     7     8    1
    17     8     9    1
    18     9    10    2
    19    10    11    1
    20    11    12    2
    21    11    13   am
    22    13    24    1
    23    24    25    1
    24    25    26   ar
    25    26    27   ar
    26    27    28   ar
    27    28    29   ar
    28    29    30   ar
    29    13    14    1
    30     6     1   ar
    31    20    15   ar
    32    14     9    1
    33    14     3    2
    34    30    25   ar
@<TRIPOS>MOLECULE
*****
 30 34 0 0 0
SMALL
GASTEIGER

@<TRIPOS>ATOM
      1 C          64.2722   89.3867   13.8839 C.ar    1  UNL1        0.1389
      2 C          63.3885   88.7029   12.8832 C.ar    1  UNL1        0.0397
      3 C          62.9532   89.4308   11.6460 C.ar    1  UNL1        0.0350
      4 C          63.4015   90.8426   11.4096 C.ar    1  UNL1        0.0778
      5 C          64.2852   91.5264   12.4103 C.ar    1  UNL1        0.0219
      6 C          64.7206   90.7984   13.6474 C.ar    1  UNL1        0.0394
      7 N          62.9661   91.5705   10.1724 N.2     1  UNL1       -0.2641
      8 C          62.0824   90.8867    9.1717 C.3     1  UNL1        0.1696
      9 C          61.6340   89.4749    9.4081 C.2     1  UNL1        0.0908
     10 N          60.7681   88.5491    8.6062 N.am    1  UNL1       -0.1630
     11 C          60.6683   87.2491    9.3477 C.2     1  UNL1        0.3314
     12 O          59.8992   86.0393    8.9065 O.2     1  UNL1       -0.2501
     13 N          61.4725   87.3713   10.6079 N.am    1  UNL1       -0.2347
     14 C          62.0694   88.7470   10.6453 C.2     1  UNL1        0.0704
     15 C          65.6043   91.4823   14.6482 C.ar    1  UNL1        0.0526
     16 C          67.0375   91.8720   14.4379 C.ar    1  UNL1        0.1007
     17 C          67.8386   91.6462   13.1900 C.3     1  UNL1        0.0557
     18 N          67.5289   92.5271   15.6946 N.ar    1  UNL1       -0.0817
     19 O          66.3994   92.5423   16.6816 O.2     1  UNL1       -0.3581
     20 C          65.2100   91.8966   16.0349 C.ar    1  UNL1        0.1545
     21 C          63.8628   91.6997   16.6643 C.3     1  UNL1        0.0754
     22 C          64.3077   87.2282   15.3294 C.3     1  UNL1        0.2525
     23 O          64.7076   88.6588   15.1211 O.3     1  UNL1       -0.4714
     24 C          61.6489   86.3052   11.6482 C.3     1  UNL1        0.1454
     25 C          62.6078   85.1765   11.4103 C.ar    1  UNL1        0.0795
     26 C          62.9373   84.7551   10.0089 C.ar    1  UNL1        0.0165
     27 C          63.8961   83.6265    9.7709 C.ar    1  UNL1        0.0029
     28 C          64.5256   82.9191   10.9343 C.ar    1  UNL1        0.0207
     29 C          64.1961   83.3404   12.3356 C.ar    1  UNL1        0.0985
     30 N          63.2372   84.4692   12.5737 N.ar    1  UNL1       -0.2464
@<TRIPOS>BOND
     1    22    23    1
     2    23     1    1
     3     1     2   ar
     4     2     3   ar
     5     3     4   ar
     6     4     5   ar
     7     5     6   ar
     8     6    15    1
     9    15    16   ar
    10    16    17    1
    11    16    18   ar
    12    18    19   ar
    13    19    20   ar
    14    20    21    1
    15     4     7    2
    16     7     8    1
    17     8     9    1
    18     9    10    2
    19    10    11    1
    20    11    12    2
    21    11    13   am
    22    13    24    1
    23    24    25    1
    24    25    26   ar
    25    26    27   ar
    26    27    28   ar
    27    28    29   ar
    28    29    30   ar
    29    13    14    1
    30     6     1   ar
    31    20    15   ar
    32    14     9    1
    33    14     3    2
    34    30    25   ar
@<TRIPOS>MOLECULE
*****
 30 34 0 0 0
SMALL
GASTEIGER

@<TRIPOS>ATOM
      1 C          61.3523   88.8599   11.5557 C.ar    1  UNL1        0.1389
      2 C          62.2068   89.6021   12.5400 C.ar    1  UNL1        0.0397
      3 C          63.2789   90.5308   12.0519 C.ar    1  UNL1        0.0350
      4 C          63.4965   90.7173   10.5796 C.ar    1  UNL1        0.0778
      5 C          62.6420   89.9750    9.5953 C.ar    1  UNL1        0.0219
      6 C          61.5699   89.0463   10.0833 C.ar    1  UNL1        0.0394
      7 N          64.5685   91.6459   10.0915 N.2     1  UNL1       -0.2641
      8 C          65.4230   92.3882   11.0758 C.3     1  UNL1        0.1696
      9 C          65.2055   92.2018   12.5482 C.2     1  UNL1        0.0908
     10 N          65.8865   92.7939   13.7464 N.am    1  UNL1       -0.1630
     11 C          65.2353   92.2312   14.9749 C.2     1  UNL1        0.3314
     12 O          65.6030   92.5521   16.3932 O.2     1  UNL1       -0.2501
     13 N          64.1519   91.2913   14.5361 N.am    1  UNL1       -0.2347
     14 C          64.1334   91.2731   13.0363 C.2     1  UNL1        0.0704
     15 C          60.7154   88.3040    9.0989 C.ar    1  UNL1        0.0526
     16 C          60.6491   86.8144    8.9362 C.ar    1  UNL1        0.1007
     17 C          61.4256   85.8054    9.7293 C.3     1  UNL1        0.0557
     18 N          59.6699   86.5109    7.8412 N.ar    1  UNL1       -0.0817
     19 O          59.1310   87.8130    7.3271 O.2     1  UNL1       -0.3581
     20 C          59.7772   88.9212    8.1045 C.ar    1  UNL1        0.1545
     21 C          59.5288   90.3889    7.9198 C.3     1  UNL1        0.0754
     22 C          58.9465   88.4776   12.4587 C.3     1  UNL1        0.2525
     23 O          60.2803   87.9312   12.0437 O.3     1  UNL1       -0.4714
     24 C          63.2459   90.5072   15.4385 C.3     1  UNL1        0.1454
     25 C          63.4763   89.0389   15.6408 C.ar    1  UNL1        0.0795
     26 C          64.3631   88.2819   14.6970 C.ar    1  UNL1        0.0165
     27 C          64.5936   86.8136   14.8991 C.ar    1  UNL1        0.0029
     28 C          63.9373   86.1022   16.0451 C.ar    1  UNL1        0.0207
     29 C          63.0506   86.8591   16.9889 C.ar    1  UNL1        0.0985
     30 N          62.8201   88.3275   16.7867 N.ar    1  UNL1       -0.2464
@<TRIPOS>BOND
     1    22    23    1
     2    23     1    1
     3     1     2   ar
     4     2     3   ar
     5     3     4   ar
     6     4     5   ar
     7     5     6   ar
     8     6    15    1
     9    15    16   ar
    10    16    17    1
    11    16    18   ar
    12    18    19   ar
    13    19    20   ar
    14    20    21    1
    15     4     7    2
    16     7     8    1
    17     8     9    1
    18     9    10    2
    19    10    11    1
    20    11    12    2
    21    11    13   am
    22    13    24    1
    23    24    25    1
    24    25    26   ar
    25    26    27   ar
    26    27    28   ar
    27    28    29   ar
    28    29    30   ar
    29    13    14    1
    30     6     1   ar
    31    20    15   ar
    32    14     9    1
    33    14     3    2
    34    30    25   ar
@<TRIPOS>MOLECULE
*****
 30 34 0 0 0
SMALL
GASTEIGER

@<TRIPOS>ATOM
      1 C          63.9142   85.8913   13.8411 C.ar    1  UNL1        0.1389
      2 C          64.0844   87.3671   13.6339 C.ar    1  UNL1        0.0397
      3 C          63.4495   88.0366   12.4512 C.ar    1  UNL1        0.0350
      4 C          62.6444   87.2302   11.4758 C.ar    1  UNL1        0.0778
      5 C          62.4742   85.7544   11.6830 C.ar    1  UNL1        0.0219
      6 C          63.1090   85.0850   12.8657 C.ar    1  UNL1        0.0394
      7 N          62.0095   87.8997   10.2931 N.2     1  UNL1       -0.2641
      8 C          62.1798   89.3755   10.0859 C.3     1  UNL1        0.1696
      9 C          62.9850   90.1819   11.0614 C.2     1  UNL1        0.0908
     10 N          63.3244   91.6419   11.1178 N.am    1  UNL1       -0.1630
     11 C          64.1690   91.8747   12.3353 C.2     1  UNL1        0.3314
     12 O          64.7321   93.1923   12.7788 O.2     1  UNL1       -0.2501
     13 N          64.3516   90.5587   13.0314 N.am    1  UNL1       -0.2347
     14 C          63.6198   89.5124   12.2441 C.2     1  UNL1        0.0704
     15 C          62.9388   83.6091   13.0728 C.ar    1  UNL1        0.0526
     16 C          63.4327   82.5276   12.1583 C.ar    1  UNL1        0.1007
     17 C          64.1836   82.7320   10.8760 C.3     1  UNL1        0.0557
     18 N          63.0438   81.2057   12.7512 N.ar    1  UNL1       -0.0817
     19 O          62.3095   81.4703   14.0322 O.2     1  UNL1       -0.3581
     20 C          62.2446   82.9556   14.2309 C.ar    1  UNL1        0.1545
     21 C          61.5989   83.6633   15.3852 C.3     1  UNL1        0.0754
     22 C          64.1110   85.5800   16.4129 C.3     1  UNL1        0.2525
     23 O          64.5490   85.2218   15.0238 O.3     1  UNL1       -0.4714
     24 C          65.1294   90.3291   14.2932 C.3     1  UNL1        0.1454
     25 C          66.2376   91.2663   14.6722 C.ar    1  UNL1        0.0795
     26 C          66.1071   92.1270   15.8938 C.ar    1  UNL1        0.0165
     27 C          67.2152   93.0642   16.2728 C.ar    1  UNL1        0.0029
     28 C          68.4539   93.1408   15.4303 C.ar    1  UNL1        0.0207
     29 C          68.5843   92.2802   14.2087 C.ar    1  UNL1        0.0985
     30 N          67.4762   91.3429   13.8296 N.ar    1  UNL1       -0.2464
@<TRIPOS>BOND
     1    22    23    1
     2    23     1    1
     3     1     2   ar
     4     2     3   ar
     5     3     4   ar
     6     4     5   ar
     7     5     6   ar
     8     6    15    1
     9    15    16   ar
    10    16    17    1
    11    16    18   ar
    12    18    19   ar
    13    19    20   ar
    14    20    21    1
    15     4     7    2
    16     7     8    1
    17     8     9    1
    18     9    10    2
    19    10    11    1
    20    11    12    2
    21    11    13   am
    22    13    24    1
    23    24    25    1
    24    25    26   ar
    25    26    27   ar
    26    27    28   ar
    27    28    29   ar
    28    29    30   ar
    29    13    14    1
    30     6     1   ar
    31    20    15   ar
    32    14     9    1
    33    14     3    2
    34    30    25   ar
@<TRIPOS>MOLECULE
*****
 30 34 0 0 0
SMALL
GASTEIGER

@<TRIPOS>ATOM
      1 C          63.5550   84.4571   12.9460 C.ar    1  UNL1        0.1389
      2 C          63.5685   85.9560   12.8898 C.ar    1  UNL1        0.0397
      3 C          62.7249   86.6763   11.8801 C.ar    1  UNL1        0.0350
      4 C          61.8679   85.8977   10.9265 C.ar    1  UNL1        0.0778
      5 C          61.8545   84.3988   10.9827 C.ar    1  UNL1        0.0219
      6 C          62.6980   83.6786   11.9925 C.ar    1  UNL1        0.0394
      7 N          61.0244   86.6180    9.9167 N.2     1  UNL1       -0.2641
      8 C          61.0378   88.1168    9.8606 C.3     1  UNL1        0.1696
      9 C          61.8949   88.8955   10.8142 C.2     1  UNL1        0.0908
     10 N          62.1122   90.3686   10.9949 N.am    1  UNL1       -0.1630
     11 C          63.0900   90.5587   12.1163 C.2     1  UNL1        0.3314
     12 O          63.5926   91.8736   12.6344 O.2     1  UNL1       -0.2501
     13 N          63.4771   89.2032   12.6287 N.am    1  UNL1       -0.2347
     14 C          62.7384   88.1752   11.8239 C.2     1  UNL1        0.0704
     15 C          62.6845   82.1796   12.0486 C.ar    1  UNL1        0.0526
     16 C          62.0612   81.3433   13.1265 C.ar    1  UNL1        0.1007
     17 C          61.3419   81.8589   14.3376 C.3     1  UNL1        0.0557
     18 N          62.2834   79.9007   12.7808 N.ar    1  UNL1       -0.0817
     19 O          63.0442   79.8454   11.4891 O.2     1  UNL1       -0.3581
     20 C          63.2921   81.2539   11.0367 C.ar    1  UNL1        0.1545
     21 C          64.0197   81.6646    9.7909 C.3     1  UNL1        0.0754
     22 C          63.8944   83.5470   15.3557 C.3     1  UNL1        0.2525
     23 O          64.3986   83.7368   13.9558 O.3     1  UNL1       -0.4714
     24 C          64.4346   88.9245   13.7491 C.3     1  UNL1        0.1454
     25 C          63.9174   88.4752   15.0835 C.ar    1  UNL1        0.0795
     26 C          63.4236   89.4862   16.0755 C.ar    1  UNL1        0.0165
     27 C          62.9063   89.0371   17.4099 C.ar    1  UNL1        0.0029
     28 C          62.8828   87.5768   17.7524 C.ar    1  UNL1        0.0207
     29 C          63.3766   86.5659   16.7604 C.ar    1  UNL1        0.0985
     30 N          63.8939   87.0150   15.4259 N.ar    1  UNL1       -0.2464
@<TRIPOS>BOND
     1    22    23    1
     2    23     1    1
     3     1     2   ar
     4     2     3   ar
     5     3     4   ar
     6     4     5   ar
     7     5     6   ar
     8     6    15    1
     9    15    16   ar
    10    16    17    1
    11    16    18   ar
    12    18    19   ar
    13    19    20   ar
    14    20    21    1
    15     4     7    2
    16     7     8    1
    17     8     9    1
    18     9    10    2
    19    10    11    1
    20    11    12    2
    21    11    13   am
    22    13    24    1
    23    24    25    1
    24    25    26   ar
    25    26    27   ar
    26    27    28   ar
    27    28    29   ar
    28    29    30   ar
    29    13    14    1
    30     6     1   ar
    31    20    15   ar
    32    14     9    1
    33    14     3    2
    34    30    25   ar
@<TRIPOS>MOLECULE
*****
 30 34 0 0 0
SMALL
GASTEIGER

@<TRIPOS>ATOM
      1 C          60.9527   86.7402   11.1251 C.ar    1  UNL1        0.1389
      2 C          61.5545   85.6121   11.9093 C.ar    1  UNL1        0.0397
      3 C          62.5345   84.6834   11.2557 C.ar    1  UNL1        0.0350
      4 C          62.9125   84.8828    9.8180 C.ar    1  UNL1        0.0778
      5 C          62.3107   86.0109    9.0338 C.ar    1  UNL1        0.0219
      6 C          61.3307   86.9396    9.6873 C.ar    1  UNL1        0.0394
      7 N          63.8925   83.9540    9.1644 N.2     1  UNL1       -0.2641
      8 C          64.4943   82.8259    9.9486 C.3     1  UNL1        0.1696
      9 C          64.1163   82.6264   11.3864 C.2     1  UNL1        0.0908
     10 N          64.5420   81.6105   12.4046 N.am    1  UNL1       -0.1630
     11 C          63.8251   81.9113   13.6873 C.2     1  UNL1        0.3314
     12 O          63.9543   81.1448   14.9702 O.2     1  UNL1       -0.2501
     13 N          62.9564   83.1132   13.4621 N.am    1  UNL1       -0.2347
     14 C          63.1363   83.5552   12.0400 C.2     1  UNL1        0.0704
     15 C          60.7289   88.0678    8.9031 C.ar    1  UNL1        0.0526
     16 C          59.6170   87.9517    7.9029 C.ar    1  UNL1        0.1007
     17 C          58.9118   86.6871    7.5114 C.3     1  UNL1        0.0557
     18 N          59.3342   89.3223    7.3630 N.ar    1  UNL1       -0.0817
     19 O          60.2713   90.2856    8.0295 O.2     1  UNL1       -0.3581
     20 C          61.1333   89.5102    8.9813 C.ar    1  UNL1        0.1545
     21 C          62.2104   90.0776    9.8575 C.3     1  UNL1        0.0754
     22 C          60.4433   88.9718   12.3541 C.3     1  UNL1        0.2525
     23 O          59.9727   87.6690   11.7787 O.3     1  UNL1       -0.4714
     24 C          62.0644   83.7596   14.4801 C.3     1  UNL1        0.1454
     25 C          62.5542   84.9406   15.2645 C.ar    1  UNL1        0.0795
     26 C          63.7314   85.7304   14.7743 C.ar    1  UNL1        0.0165
     27 C          64.2214   86.9114   15.5586 C.ar    1  UNL1        0.0029
     28 C          63.5340   87.3027   16.8332 C.ar    1  UNL1        0.0207
     29 C          62.3567   86.5129   17.3234 C.ar    1  UNL1        0.0985
     30 N          61.8668   85.3318   16.5390 N.ar    1  UNL1       -0.2464
@<TRIPOS>BOND
     1    22    23    1
     2    23     1    1
     3     1     2   ar
     4     2     3   ar
     5     3     4   ar
     6     4     5   ar
     7     5     6   ar
     8     6    15    1
     9    15    16   ar
    10    16    17    1
    11    16    18   ar
    12    18    19   ar
    13    19    20   ar
    14    20    21    1
    15     4     7    2
    16     7     8    1
    17     8     9    1
    18     9    10    2
    19    10    11    1
    20    11    12    2
    21    11    13   am
    22    13    24    1
    23    24    25    1
    24    25    26   ar
    25    26    27   ar
    26    27    28   ar
    27    28    29   ar
    28    29    30   ar
    29    13    14    1
    30     6     1   ar
    31    20    15   ar
    32    14     9    1
    33    14     3    2
    34    30    25   ar
@<TRIPOS>MOLECULE
*****
 30 34 0 0 0
SMALL
GASTEIGER

@<TRIPOS>ATOM
      1 C          63.8829   88.4474   13.3559 C.ar    1  UNL1        0.1389
      2 C          63.3784   87.6420   12.1954 C.ar    1  UNL1        0.0397
      3 C          62.3290   88.2112   11.2873 C.ar    1  UNL1        0.0350
      4 C          61.7839   89.5856   11.5397 C.ar    1  UNL1        0.0778
      5 C          62.2884   90.3910   12.7002 C.ar    1  UNL1        0.0219
      6 C          63.3379   89.8218   13.6083 C.ar    1  UNL1        0.0394
      7 N          60.7345   90.1547   10.6315 N.2     1  UNL1       -0.2641
      8 C          60.2300   89.3494    9.4710 C.3     1  UNL1        0.1696
      9 C          60.7750   87.9748    9.2185 C.2     1  UNL1        0.0908
     10 N          60.4730   86.9537    8.1621 N.am    1  UNL1       -0.1630
     11 C          61.3358   85.7536    8.4173 C.2     1  UNL1        0.3314
     12 O          61.3592   84.4951    7.6015 O.2     1  UNL1       -0.2501
     13 N          62.1711   86.0329    9.6314 N.am    1  UNL1       -0.2347
     14 C          61.8245   87.4057   10.1267 C.2     1  UNL1        0.0704
     15 C          63.8423   90.6273   14.7689 C.ar    1  UNL1        0.0526
     16 C          64.7868   91.7899   14.6911 C.ar    1  UNL1        0.1007
     17 C          65.3927   92.3514   13.4391 C.3     1  UNL1        0.0557
     18 N          65.0190   92.2926   16.0851 N.ar    1  UNL1       -0.0817
     19 O          64.2180   91.4406   17.0246 O.2     1  UNL1       -0.3581
     20 C          63.4908   90.4114   16.2111 C.ar    1  UNL1        0.1545
     21 C          62.5732   89.3522   16.7459 C.3     1  UNL1        0.0754
     22 C          64.6834   86.5834   14.9791 C.3     1  UNL1        0.2525
     23 O          64.9324   87.8782   14.2641 O.3     1  UNL1       -0.4714
     24 C          63.1764   85.1027   10.2430 C.3     1  UNL1        0.1454
     25 C          62.7987   84.2642   11.4280 C.ar    1  UNL1        0.0795
     26 C          62.7442   82.7704   11.3028 C.ar    1  UNL1        0.0165
     27 C          62.3664   81.9318   12.4877 C.ar    1  UNL1        0.0029
     28 C          62.0432   82.5869   13.7979 C.ar    1  UNL1        0.0207
     29 C          62.0978   84.0806   13.9230 C.ar    1  UNL1        0.0985
     30 N          62.4755   84.9194   12.7381 N.ar    1  UNL1       -0.2464
@<TRIPOS>BOND
     1    22    23    1
     2    23     1    1
     3     1     2   ar
     4     2     3   ar
     5     3     4   ar
     6     4     5   ar
     7     5     6   ar
     8     6    15    1
     9    15    16   ar
    10    16    17    1
    11    16    18   ar
    12    18    19   ar
    13    19    20   ar
    14    20    21    1
    15     4     7    2
    16     7     8    1
    17     8     9    1
    18     9    10    2
    19    10    11    1
    20    11    12    2
    21    11    13   am
    22    13    24    1
    23    24    25    1
    24    25    26   ar
    25    26    27   ar
    26    27    28   ar
    27    28    29   ar
    28    29    30   ar
    29    13    14    1
    30     6     1   ar
    31    20    15   ar
    32    14     9    1
    33    14     3    2
    34    30    25   ar
@<TRIPOS>MOLECULE
*****
 30 34 0 0 0
SMALL
GASTEIGER

@<TRIPOS>ATOM
      1 C          63.2448   84.8596   12.3047 C.ar    1  UNL1        0.1389
      2 C          63.3502   86.2200   12.9277 C.ar    1  UNL1        0.0397
      3 C          63.2712   86.3706   14.4180 C.ar    1  UNL1        0.0350
      4 C          63.0869   85.1608   15.2854 C.ar    1  UNL1        0.0778
      5 C          62.9816   83.8004   14.6624 C.ar    1  UNL1        0.0219
      6 C          63.0605   83.6498   13.1720 C.ar    1  UNL1        0.0394
      7 N          63.0079   85.3113   16.7757 N.2     1  UNL1       -0.2641
      8 C          63.1133   86.6717   17.3987 C.3     1  UNL1        0.1696
      9 C          63.2976   87.8817   16.5314 C.2     1  UNL1        0.0908
     10 N          63.4322   89.3395   16.8577 N.am    1  UNL1       -0.1630
     11 C          63.5944   90.0899   15.5691 C.2     1  UNL1        0.3314
     12 O          63.7616   91.5739   15.4281 O.2     1  UNL1       -0.2501
     13 N          63.5600   89.0959   14.4464 N.am    1  UNL1       -0.2347
     14 C          63.3766   87.7311   15.0410 C.2     1  UNL1        0.0704
     15 C          62.9552   82.2893   12.5490 C.ar    1  UNL1        0.0526
     16 C          63.6885   81.8197   11.3277 C.ar    1  UNL1        0.1007
     17 C          64.6559   82.6280   10.5149 C.3     1  UNL1        0.0557
     18 N          63.2845   80.3998   11.0619 N.ar    1  UNL1       -0.0817
     19 O          62.3015   79.9918   12.1190 O.2     1  UNL1       -0.3581
     20 C          62.0980   81.1597   13.0380 C.ar    1  UNL1        0.1545
     21 C          61.1957   81.1921   14.2358 C.3     1  UNL1        0.0754
     22 C          62.4904   85.5852    9.9268 C.3     1  UNL1        0.2525
     23 O          63.3238   84.7091   10.8144 O.3     1  UNL1       -0.4714
     24 C          63.6868   89.4113   12.9854 C.3     1  UNL1        0.1454
     25 C          62.4578   89.5217   12.1325 C.ar    1  UNL1        0.0795
     26 C          62.5765   89.4857   10.6377 C.ar    1  UNL1        0.0165
     27 C          61.3476   89.5961    9.7848 C.ar    1  UNL1        0.0029
     28 C          59.9998   89.7427   10.4267 C.ar    1  UNL1        0.0207
     29 C          59.8811   89.7787   11.9216 C.ar    1  UNL1        0.0985
     30 N          61.1101   89.6683   12.7746 N.ar    1  UNL1       -0.2464
@<TRIPOS>BOND
     1    22    23    1
     2    23     1    1
     3     1     2   ar
     4     2     3   ar
     5     3     4   ar
     6     4     5   ar
     7     5     6   ar
     8     6    15    1
     9    15    16   ar
    10    16    17    1
    11    16    18   ar
    12    18    19   ar
    13    19    20   ar
    14    20    21    1
    15     4     7    2
    16     7     8    1
    17     8     9    1
    18     9    10    2
    19    10    11    1
    20    11    12    2
    21    11    13   am
    22    13    24    1
    23    24    25    1
    24    25    26   ar
    25    26    27   ar
    26    27    28   ar
    27    28    29   ar
    28    29    30   ar
    29    13    14    1
    30     6     1   ar
    31    20    15   ar
    32    14     9    1
    33    14     3    2
    34    30    25   ar
@<TRIPOS>MOLECULE
*****
 30 34 0 0 0
SMALL
GASTEIGER

@<TRIPOS>ATOM
      1 C          60.8933   86.8226   11.1052 C.ar    1  UNL1        0.1389
      2 C          61.5258   85.7403   11.9289 C.ar    1  UNL1        0.0397
      3 C          62.5070   84.7959   11.3002 C.ar    1  UNL1        0.0350
      4 C          62.8557   84.9338    9.8479 C.ar    1  UNL1        0.0778
      5 C          62.2232   86.0161    9.0242 C.ar    1  UNL1        0.0219
      6 C          61.2420   86.9605    9.6529 C.ar    1  UNL1        0.0394
      7 N          63.8370   83.9893    9.2192 N.2     1  UNL1       -0.2641
      8 C          64.4695   82.9070   10.0429 C.3     1  UNL1        0.1696
      9 C          64.1208   82.7691   11.4953 C.2     1  UNL1        0.0908
     10 N          64.5798   81.8072   12.5508 N.am    1  UNL1       -0.1630
     11 C          63.8823   82.1572   13.8318 C.2     1  UNL1        0.3314
     12 O          64.0461   81.4527   15.1459 O.2     1  UNL1       -0.2501
     13 N          62.9922   83.3353   13.5680 N.am    1  UNL1       -0.2347
     14 C          63.1395   83.7135   12.1240 C.2     1  UNL1        0.0704
     15 C          60.6095   88.0429    8.8292 C.ar    1  UNL1        0.0526
     16 C          60.9602   89.5007    8.8698 C.ar    1  UNL1        0.1007
     17 C          62.0051   90.1322    9.7413 C.3     1  UNL1        0.0557
     18 N          60.0827   90.2162    7.8859 N.ar    1  UNL1       -0.0817
     19 O          59.1896   89.2005    7.2372 O.2     1  UNL1       -0.3581
     20 C          59.5152   87.8574    7.8201 C.ar    1  UNL1        0.1545
     21 C          58.8613   86.5570    7.4577 C.3     1  UNL1        0.0754
     22 C          60.3930   89.0458   12.3531 C.3     1  UNL1        0.2525
     23 O          59.9120   87.7671   11.7339 O.3     1  UNL1       -0.4714
     24 C          62.1096   84.0158   14.5720 C.3     1  UNL1        0.1454
     25 C          62.6014   85.2307   15.3014 C.ar    1  UNL1        0.0795
     26 C          62.1449   85.4989   16.7048 C.ar    1  UNL1        0.0165
     27 C          62.6366   86.7138   17.4343 C.ar    1  UNL1        0.0029
     28 C          63.5850   87.6606   16.7603 C.ar    1  UNL1        0.0207
     29 C          64.0414   87.3925   15.3569 C.ar    1  UNL1        0.0985
     30 N          63.5497   86.1775   14.6273 N.ar    1  UNL1       -0.2464
@<TRIPOS>BOND
     1    22    23    1
     2    23     1    1
     3     1     2   ar
     4     2     3   ar
     5     3     4   ar
     6     4     5   ar
     7     5     6   ar
     8     6    15    1
     9    15    16   ar
    10    16    17    1
    11    16    18   ar
    12    18    19   ar
    13    19    20   ar
    14    20    21    1
    15     4     7    2
    16     7     8    1
    17     8     9    1
    18     9    10    2
    19    10    11    1
    20    11    12    2
    21    11    13   am
    22    13    24    1
    23    24    25    1
    24    25    26   ar
    25    26    27   ar
    26    27    28   ar
    27    28    29   ar
    28    29    30   ar
    29    13    14    1
    30     6     1   ar
    31    20    15   ar
    32    14     9    1
    33    14     3    2
    34    30    25   ar
