@<TRIPOS>MOLECULE
*****
 36 39 0 0 0
SMALL
GASTEIGER

@<TRIPOS>ATOM
      1 C          63.2616   91.3694   13.1634 C.3     1  UNL1        0.1799
      2 C          63.2003   90.0010   13.7747 C.2     1  UNL1        0.2478
      3 O          62.3738   89.7650   15.0040 O.2     1  UNL1       -0.2729
      4 N          63.9655   88.8684   13.1566 N.am    1  UNL1       -0.2627
      5 H          64.5079   89.0233   12.3497 H       1  UNL1        0.1568
      6 C          63.9041   87.5000   13.7678 C.ar    1  UNL1        0.1656
      7 N          64.2496   87.1512   15.1852 N.ar    1  UNL1       -0.2224
      8 C          64.0456   85.6757   15.3624 C.ar    1  UNL1        0.1073
      9 C          63.5739   85.1127   14.0544 C.ar    1  UNL1        0.0512
     10 S          63.4865   86.2402   13.0690 S.2     1  UNL1       -0.0513
     11 C          63.2471   83.6746   13.7802 C.ar    1  UNL1        0.0077
     12 C          63.9141   82.9574   12.6441 C.ar    1  UNL1        0.0018
     13 C          63.5873   81.5193   12.3699 C.ar    1  UNL1        0.0141
     14 C          62.5934   80.7985   13.2316 C.ar    1  UNL1        0.0415
     15 N          62.2666   79.3606   12.9574 N.pl3   1  UNL1       -0.3570
     16 C          61.9263   81.5159   14.3677 C.ar    1  UNL1        0.0141
     17 C          62.2532   82.9538   14.6419 C.ar    1  UNL1        0.0018
     18 H          62.7044   78.8898   12.2117 H       1  UNL1        0.1424
     19 H          61.6143   78.8875   13.5230 H       1  UNL1        0.1424
     20 C          65.1892   92.0787   11.5724 C.2     1  UNL1        0.2511
     21 O          65.7288   92.2565   10.1842 O.2     1  UNL1       -0.2698
     22 N          63.8013   91.5472   11.7752 N.am    1  UNL1       -0.2635
     23 C          68.5825   93.4933   16.3142 C.3     1  UNL1        0.0521
     24 C          67.7341   93.1397   15.1287 C.ar    1  UNL1        0.0594
     25 C          67.4915   91.7005   14.7827 C.ar    1  UNL1        0.0149
     26 C          66.6432   91.3468   13.5973 C.ar    1  UNL1        0.0073
     27 C          66.0375   92.4324   12.7579 C.ar    1  UNL1        0.0727
     28 C          66.2801   93.8716   13.1039 C.ar    1  UNL1        0.1029
     29 N          67.1284   94.2252   14.2893 N.ar    1  UNL1       -0.2480
     30 C          62.9529   91.1936   10.5897 C.3     1  UNL1        0.1209
     31 C          62.0371   90.0072   10.6500 C.ar    1  UNL1       -0.0023
     32 C          62.4728   88.6933   10.0724 C.ar    1  UNL1       -0.0026
     33 C          61.5569   87.5068   10.1327 C.ar    1  UNL1       -0.0003
     34 C          60.2054   87.6343   10.7707 C.ar    1  UNL1       -0.0000
     35 C          59.7697   88.9483   11.3484 C.ar    1  UNL1       -0.0003
     36 C          60.6855   90.1347   11.2881 C.ar    1  UNL1       -0.0026
@<TRIPOS>BOND
     1    23    24    1
     2    24    25   ar
     3    25    26   ar
     4    26    27   ar
     5    27    20    1
     6    20    21    2
     7    20    22   am
     8    22     1    1
     9     1     2    1
    10     2     3    2
    11     2     4   am
    12     4     6    1
    13     6     7   ar
    14     7     8   ar
    15     8     9   ar
    16     9    11    1
    17    11    12   ar
    18    12    13   ar
    19    13    14   ar
    20    14    15    1
    21    14    16   ar
    22    16    17   ar
    23     9    10   ar
    24    22    30    1
    25    30    31    1
    26    31    32   ar
    27    32    33   ar
    28    33    34   ar
    29    34    35   ar
    30    35    36   ar
    31    27    28   ar
    32    28    29   ar
    33    29    24   ar
    34    10     6   ar
    35    36    31   ar
    36    17    11   ar
    37     4     5    1
    38    15    18    1
    39    15    19    1
@<TRIPOS>MOLECULE
*****
 36 39 0 0 0
SMALL
GASTEIGER

@<TRIPOS>ATOM
      1 C          64.7813   92.4117   12.7710 C.3     1  UNL1        0.1799
      2 C          63.8869   91.4975   11.9873 C.2     1  UNL1        0.2478
      3 O          63.9955   91.4422   10.4923 O.2     1  UNL1       -0.2729
      4 N          62.8839   90.6384   12.6987 N.am    1  UNL1       -0.2627
      5 H          62.8126   90.6746   13.6799 H       1  UNL1        0.1568
      6 C          61.9895   89.7241   11.9150 C.ar    1  UNL1        0.1656
      7 N          60.5105   89.5613   12.1052 N.ar    1  UNL1       -0.2224
      8 C          60.0240   88.5487   11.1113 C.ar    1  UNL1        0.1073
      9 C          61.2024   88.0857   10.3068 C.ar    1  UNL1        0.0512
     10 S          62.4171   88.8121   10.8035 S.2     1  UNL1       -0.0513
     11 C          61.1714   87.0738    9.1999 C.ar    1  UNL1        0.0077
     12 C          59.9177   86.8746    8.4008 C.ar    1  UNL1        0.0018
     13 C          59.8868   85.8627    7.2939 C.ar    1  UNL1        0.0141
     14 C          61.1094   85.0501    6.9861 C.ar    1  UNL1        0.0415
     15 N          61.0784   84.0383    5.8793 N.pl3   1  UNL1       -0.3570
     16 C          62.3631   85.2494    7.7853 C.ar    1  UNL1        0.0141
     17 C          62.3940   86.2612    8.8921 C.ar    1  UNL1        0.0018
     18 H          60.2556   83.9075    5.3548 H       1  UNL1        0.1424
     19 H          61.8809   83.5049    5.6773 H       1  UNL1        0.1424
     20 C          67.3401   92.4765   12.3258 C.2     1  UNL1        0.2511
     21 O          68.7316   92.0423   12.6798 O.2     1  UNL1       -0.2698
     22 N          66.1728   91.9776   13.1249 N.am    1  UNL1       -0.2635
     23 C          66.4435   96.2084    7.7140 C.3     1  UNL1        0.0521
     24 C          66.6676   95.2754    8.8670 C.ar    1  UNL1        0.0594
     25 C          67.4454   94.0086    8.6664 C.ar    1  UNL1        0.0149
     26 C          67.6695   93.0756    9.8194 C.ar    1  UNL1        0.0073
     27 C          67.1160   93.4094   11.1729 C.ar    1  UNL1        0.0727
     28 C          66.3382   94.6762   11.3734 C.ar    1  UNL1        0.1029
     29 N          66.1141   95.6092   10.2205 N.ar    1  UNL1       -0.2480
     30 C          66.3970   91.0446   14.2778 C.3     1  UNL1        0.1209
     31 C          65.2255   90.4197   14.9756 C.ar    1  UNL1       -0.0023
     32 C          64.4237   91.2203   15.9585 C.ar    1  UNL1       -0.0026
     33 C          63.2521   90.5953   16.6564 C.ar    1  UNL1       -0.0003
     34 C          62.8825   89.1698   16.3714 C.ar    1  UNL1       -0.0000
     35 C          63.6844   88.3692   15.3884 C.ar    1  UNL1       -0.0003
     36 C          64.8559   88.9942   14.6906 C.ar    1  UNL1       -0.0026
@<TRIPOS>BOND
     1    23    24    1
     2    24    25   ar
     3    25    26   ar
     4    26    27   ar
     5    27    20    1
     6    20    21    2
     7    20    22   am
     8    22     1    1
     9     1     2    1
    10     2     3    2
    11     2     4   am
    12     4     6    1
    13     6     7   ar
    14     7     8   ar
    15     8     9   ar
    16     9    11    1
    17    11    12   ar
    18    12    13   ar
    19    13    14   ar
    20    14    15    1
    21    14    16   ar
    22    16    17   ar
    23     9    10   ar
    24    22    30    1
    25    30    31    1
    26    31    32   ar
    27    32    33   ar
    28    33    34   ar
    29    34    35   ar
    30    35    36   ar
    31    27    28   ar
    32    28    29   ar
    33    29    24   ar
    34    10     6   ar
    35    36    31   ar
    36    17    11   ar
    37     4     5    1
    38    15    18    1
    39    15    19    1
@<TRIPOS>MOLECULE
*****
 36 39 0 0 0
SMALL
GASTEIGER

@<TRIPOS>ATOM
      1 C          63.8265   92.0412   13.1971 C.3     1  UNL1        0.1799
      2 C          63.1805   91.0326   12.2940 C.2     1  UNL1        0.2478
      3 O          63.6576   90.8773   10.8804 O.2     1  UNL1       -0.2729
      4 N          62.0575   90.1793   12.8046 N.am    1  UNL1       -0.2627
      5 H          61.7444   90.2812   13.7324 H       1  UNL1        0.1568
      6 C          61.4115   89.1707   11.9016 C.ar    1  UNL1        0.1656
      7 N          59.9820   88.7205   11.9625 N.ar    1  UNL1       -0.2224
      8 C          59.7686   87.7068   10.8777 C.ar    1  UNL1        0.1073
      9 C          61.0663   87.5306   10.1462 C.ar    1  UNL1        0.0512
     10 S          62.0816   88.4354   10.7791 S.2     1  UNL1       -0.0513
     11 C          61.3065   86.6111    8.9857 C.ar    1  UNL1        0.0077
     12 C          62.6567   85.9878    8.7895 C.ar    1  UNL1        0.0018
     13 C          62.8968   85.0683    7.6290 C.ar    1  UNL1        0.0141
     14 C          61.7868   84.7720    6.6647 C.ar    1  UNL1        0.0415
     15 N          62.0269   83.8525    5.5042 N.pl3   1  UNL1       -0.3570
     16 C          60.4365   85.3953    6.8609 C.ar    1  UNL1        0.0141
     17 C          60.1964   86.3148    8.0213 C.ar    1  UNL1        0.0018
     18 H          62.9131   83.4434    5.3755 H       1  UNL1        0.1424
     19 H          61.2984   83.6580    4.8713 H       1  UNL1        0.1424
     20 C          66.3093   91.7759   13.9151 C.2     1  UNL1        0.2511
     21 O          67.3305   91.3359   14.9218 O.2     1  UNL1       -0.2698
     22 N          64.8478   91.6011   14.2038 N.am    1  UNL1       -0.2635
     23 C          68.0706   94.2351    8.7333 C.3     1  UNL1        0.0521
     24 C          67.6303   93.6203   10.0288 C.ar    1  UNL1        0.0594
     25 C          68.0567   92.2258   10.3804 C.ar    1  UNL1        0.0149
     26 C          67.6164   91.6111   11.6758 C.ar    1  UNL1        0.0073
     27 C          66.7496   92.3907   12.6196 C.ar    1  UNL1        0.0727
     28 C          66.3232   93.7851   12.2680 C.ar    1  UNL1        0.1029
     29 N          66.7635   94.3999   10.9726 N.ar    1  UNL1       -0.2480
     30 C          64.4075   90.9863   15.4992 C.3     1  UNL1        0.1209
     31 C          64.1318   89.5139   15.5752 C.ar    1  UNL1       -0.0023
     32 C          63.3085   88.9621   16.7011 C.ar    1  UNL1       -0.0026
     33 C          63.0328   87.4896   16.7770 C.ar    1  UNL1       -0.0003
     34 C          63.5804   86.5689   15.7271 C.ar    1  UNL1       -0.0000
     35 C          64.4037   87.1207   14.6011 C.ar    1  UNL1       -0.0003
     36 C          64.6794   88.5932   14.5252 C.ar    1  UNL1       -0.0026
@<TRIPOS>BOND
     1    23    24    1
     2    24    25   ar
     3    25    26   ar
     4    26    27   ar
     5    27    20    1
     6    20    21    2
     7    20    22   am
     8    22     1    1
     9     1     2    1
    10     2     3    2
    11     2     4   am
    12     4     6    1
    13     6     7   ar
    14     7     8   ar
    15     8     9   ar
    16     9    11    1
    17    11    12   ar
    18    12    13   ar
    19    13    14   ar
    20    14    15    1
    21    14    16   ar
    22    16    17   ar
    23     9    10   ar
    24    22    30    1
    25    30    31    1
    26    31    32   ar
    27    32    33   ar
    28    33    34   ar
    29    34    35   ar
    30    35    36   ar
    31    27    28   ar
    32    28    29   ar
    33    29    24   ar
    34    10     6   ar
    35    36    31   ar
    36    17    11   ar
    37     4     5    1
    38    15    18    1
    39    15    19    1
@<TRIPOS>MOLECULE
*****
 36 39 0 0 0
SMALL
GASTEIGER

@<TRIPOS>ATOM
      1 C          61.8441   86.0025   12.3549 C.3     1  UNL1        0.1799
      2 C          61.4083   86.3348   10.9586 C.2     1  UNL1        0.2478
      3 O          62.0453   85.6436    9.7897 O.2     1  UNL1       -0.2729
      4 N          60.3355   87.3583   10.7312 N.am    1  UNL1       -0.2627
      5 H          59.9174   87.8119   11.4984 H       1  UNL1        0.1568
      6 C          59.8998   87.6905    9.3349 C.ar    1  UNL1        0.1656
      7 N          59.1843   86.7693    8.3918 N.ar    1  UNL1       -0.2224
      8 C          58.9454   87.5118    7.1106 C.ar    1  UNL1        0.1073
      9 C          59.5132   88.8919    7.2618 C.ar    1  UNL1        0.0512
     10 S          60.1031   89.0024    8.6365 S.2     1  UNL1       -0.0513
     11 C          59.4945   89.9720    6.2211 C.ar    1  UNL1        0.0077
     12 C          60.7745   90.4145    5.5763 C.ar    1  UNL1        0.0018
     13 C          60.7557   91.4946    4.5356 C.ar    1  UNL1        0.0141
     14 C          59.4570   92.1320    4.1395 C.ar    1  UNL1        0.0415
     15 N          59.4383   93.2120    3.0988 N.pl3   1  UNL1       -0.3570
     16 C          58.1769   91.6894    4.7843 C.ar    1  UNL1        0.0141
     17 C          58.1957   90.6094    5.8250 C.ar    1  UNL1        0.0018
     18 H          60.2784   93.5025    2.6757 H       1  UNL1        0.1424
     19 H          58.5858   93.6304    2.8389 H       1  UNL1        0.1424
     20 C          64.0645   85.4905   13.6030 C.2     1  UNL1        0.2511
     21 O          65.2546   84.6053   13.8266 O.2     1  UNL1       -0.2698
     22 N          63.0343   85.1173   12.5786 N.am    1  UNL1       -0.2635
     23 C          63.4249   90.5236   16.8059 C.3     1  UNL1        0.0521
     24 C          63.5848   89.2653   16.0051 C.ar    1  UNL1        0.0594
     25 C          64.0354   89.3377   14.5763 C.ar    1  UNL1        0.0149
     26 C          64.1953   88.0795   13.7756 C.ar    1  UNL1        0.0073
     27 C          63.9046   86.7487   14.4037 C.ar    1  UNL1        0.0727
     28 C          63.4540   86.6763   15.8325 C.ar    1  UNL1        0.1029
     29 N          63.2941   87.9346   16.6333 N.ar    1  UNL1       -0.2480
     30 C          63.1942   83.8590   11.7779 C.3     1  UNL1        0.1209
     31 C          62.7945   82.5390   12.3675 C.ar    1  UNL1       -0.0023
     32 C          63.0594   81.2698   11.6132 C.ar    1  UNL1       -0.0026
     33 C          62.6597   79.9496   12.2028 C.ar    1  UNL1       -0.0003
     34 C          61.9953   79.8988   13.5467 C.ar    1  UNL1       -0.0000
     35 C          61.7304   81.1681   14.3009 C.ar    1  UNL1       -0.0003
     36 C          62.1301   82.4881   13.7113 C.ar    1  UNL1       -0.0026
@<TRIPOS>BOND
     1    23    24    1
     2    24    25   ar
     3    25    26   ar
     4    26    27   ar
     5    27    20    1
     6    20    21    2
     7    20    22   am
     8    22     1    1
     9     1     2    1
    10     2     3    2
    11     2     4   am
    12     4     6    1
    13     6     7   ar
    14     7     8   ar
    15     8     9   ar
    16     9    11    1
    17    11    12   ar
    18    12    13   ar
    19    13    14   ar
    20    14    15    1
    21    14    16   ar
    22    16    17   ar
    23     9    10   ar
    24    22    30    1
    25    30    31    1
    26    31    32   ar
    27    32    33   ar
    28    33    34   ar
    29    34    35   ar
    30    35    36   ar
    31    27    28   ar
    32    28    29   ar
    33    29    24   ar
    34    10     6   ar
    35    36    31   ar
    36    17    11   ar
    37     4     5    1
    38    15    18    1
    39    15    19    1
@<TRIPOS>MOLECULE
*****
 36 39 0 0 0
SMALL
GASTEIGER

@<TRIPOS>ATOM
      1 C          63.9058   89.4744   15.2197 C.3     1  UNL1        0.1799
      2 C          63.7433   87.9845   15.2796 C.2     1  UNL1        0.2478
      3 O          63.1207   87.3458   16.4856 O.2     1  UNL1       -0.2729
      4 N          64.2035   87.1331   14.1335 N.am    1  UNL1       -0.2627
      5 H          64.6122   87.5523   13.3420 H       1  UNL1        0.1568
      6 C          64.0411   85.6432   14.1934 C.ar    1  UNL1        0.1656
      7 N          64.1505   84.7932   15.4245 N.ar    1  UNL1       -0.2224
      8 C          63.9177   83.3663   15.0248 C.ar    1  UNL1        0.1073
      9 C          63.6645   83.3345   13.5466 C.ar    1  UNL1        0.0512
     10 S          63.7408   84.7417   13.0328 S.2     1  UNL1       -0.0513
     11 C          63.3843   82.1103   12.7262 C.ar    1  UNL1        0.0077
     12 C          62.8919   80.8588   13.3905 C.ar    1  UNL1        0.0018
     13 C          62.6116   79.6347   12.5702 C.ar    1  UNL1        0.0141
     14 C          62.8237   79.6621   11.0855 C.ar    1  UNL1        0.0415
     15 N          62.5435   78.4380   10.2652 N.pl3   1  UNL1       -0.3570
     16 C          63.3161   80.9137   10.4212 C.ar    1  UNL1        0.0141
     17 C          63.5964   82.1377   11.2415 C.ar    1  UNL1        0.0018
     18 H          62.2203   77.6166   10.7012 H       1  UNL1        0.1424
     19 H          62.6827   78.4560    9.2907 H       1  UNL1        0.1424
     20 C          64.0463   91.3801   13.4593 C.2     1  UNL1        0.2511
     21 O          63.4300   92.1570   12.3340 O.2     1  UNL1       -0.2698
     22 N          63.2894   90.2515   14.0943 N.am    1  UNL1       -0.2635
     23 C          69.5394   92.7868   15.4207 C.3     1  UNL1        0.0521
     24 C          68.1661   92.4351   14.9304 C.ar    1  UNL1        0.0594
     25 C          67.0086   92.4261   15.8843 C.ar    1  UNL1        0.0149
     26 C          65.6353   92.0744   15.3940 C.ar    1  UNL1        0.0073
     27 C          65.4196   91.7318   13.9497 C.ar    1  UNL1        0.0727
     28 C          66.5771   91.7409   12.9957 C.ar    1  UNL1        0.1029
     29 N          67.9504   92.0925   13.4861 N.ar    1  UNL1       -0.2480
     30 C          61.9161   89.8998   13.6039 C.3     1  UNL1        0.1209
     31 C          61.6995   89.5622   12.1586 C.ar    1  UNL1       -0.0023
     32 C          60.5455   90.1638   11.4128 C.ar    1  UNL1       -0.0026
     33 C          60.3288   89.8262    9.9673 C.ar    1  UNL1       -0.0003
     34 C          61.2661   88.8869    9.2679 C.ar    1  UNL1       -0.0000
     35 C          62.4201   88.2853   10.0138 C.ar    1  UNL1       -0.0003
     36 C          62.6368   88.6229   11.4591 C.ar    1  UNL1       -0.0026
@<TRIPOS>BOND
     1    23    24    1
     2    24    25   ar
     3    25    26   ar
     4    26    27   ar
     5    27    20    1
     6    20    21    2
     7    20    22   am
     8    22     1    1
     9     1     2    1
    10     2     3    2
    11     2     4   am
    12     4     6    1
    13     6     7   ar
    14     7     8   ar
    15     8     9   ar
    16     9    11    1
    17    11    12   ar
    18    12    13   ar
    19    13    14   ar
    20    14    15    1
    21    14    16   ar
    22    16    17   ar
    23     9    10   ar
    24    22    30    1
    25    30    31    1
    26    31    32   ar
    27    32    33   ar
    28    33    34   ar
    29    34    35   ar
    30    35    36   ar
    31    27    28   ar
    32    28    29   ar
    33    29    24   ar
    34    10     6   ar
    35    36    31   ar
    36    17    11   ar
    37     4     5    1
    38    15    18    1
    39    15    19    1
@<TRIPOS>MOLECULE
*****
 36 39 0 0 0
SMALL
GASTEIGER

@<TRIPOS>ATOM
      1 C          61.9497   86.0058   11.8705 C.3     1  UNL1        0.1799
      2 C          62.6462   86.9298   12.8250 C.2     1  UNL1        0.2478
      3 O          63.4838   86.3687   13.9356 O.2     1  UNL1       -0.2729
      4 N          62.5050   88.4150   12.6689 N.am    1  UNL1       -0.2627
      5 H          61.9552   88.7833   11.9399 H       1  UNL1        0.1568
      6 C          63.2014   89.3390   13.6233 C.ar    1  UNL1        0.1656
      7 N          62.6643   89.8142   14.9408 N.ar    1  UNL1       -0.2224
      8 C          63.6882   90.7190   15.5597 C.ar    1  UNL1        0.1073
      9 C          64.8582   90.8030   14.6246 C.ar    1  UNL1        0.0512
     10 S          64.5573   89.9501   13.4279 S.2     1  UNL1       -0.0513
     11 C          66.1093   91.5999   14.8473 C.ar    1  UNL1        0.0077
     12 C          67.2075   91.5728   13.8259 C.ar    1  UNL1        0.0018
     13 C          68.4586   92.3698   14.0485 C.ar    1  UNL1        0.0141
     14 C          68.6116   93.1938   15.2925 C.ar    1  UNL1        0.0415
     15 N          69.8627   93.9906   15.5151 N.pl3   1  UNL1       -0.3570
     16 C          67.5134   93.2208   16.3139 C.ar    1  UNL1        0.0141
     17 C          66.2623   92.4239   16.0913 C.ar    1  UNL1        0.0018
     18 H          70.5835   93.9729   14.8447 H       1  UNL1        0.1424
     19 H          69.9631   94.5315   16.3316 H       1  UNL1        0.1424
     20 C          62.6088   85.2636    9.4695 C.2     1  UNL1        0.2511
     21 O          63.4111   84.3856    8.5555 O.2     1  UNL1       -0.2698
     22 N          62.7520   85.1277   10.9564 N.am    1  UNL1       -0.2635
     23 C          58.8269   89.3189    7.1778 C.3     1  UNL1        0.0521
     24 C          59.7724   88.3051    7.7507 C.ar    1  UNL1        0.0594
     25 C          59.6770   86.8685    7.3297 C.ar    1  UNL1        0.0149
     26 C          60.6225   85.8547    7.9027 C.ar    1  UNL1        0.0073
     27 C          61.6633   86.2774    8.8966 C.ar    1  UNL1        0.0727
     28 C          61.7587   87.7139    9.3176 C.ar    1  UNL1        0.1029
     29 N          60.8132   88.7277    8.7446 N.ar    1  UNL1       -0.2480
     30 C          63.6975   84.1139   11.5294 C.3     1  UNL1        0.1209
     31 C          63.1617   82.8910   12.2130 C.ar    1  UNL1       -0.0023
     32 C          63.1588   81.5726   11.4977 C.ar    1  UNL1       -0.0026
     33 C          62.6230   80.3495   12.1813 C.ar    1  UNL1       -0.0003
     34 C          62.0903   80.4450   13.5802 C.ar    1  UNL1       -0.0000
     35 C          62.0932   81.7635   14.2956 C.ar    1  UNL1       -0.0003
     36 C          62.6290   82.9865   13.6119 C.ar    1  UNL1       -0.0026
@<TRIPOS>BOND
     1    23    24    1
     2    24    25   ar
     3    25    26   ar
     4    26    27   ar
     5    27    20    1
     6    20    21    2
     7    20    22   am
     8    22     1    1
     9     1     2    1
    10     2     3    2
    11     2     4   am
    12     4     6    1
    13     6     7   ar
    14     7     8   ar
    15     8     9   ar
    16     9    11    1
    17    11    12   ar
    18    12    13   ar
    19    13    14   ar
    20    14    15    1
    21    14    16   ar
    22    16    17   ar
    23     9    10   ar
    24    22    30    1
    25    30    31    1
    26    31    32   ar
    27    32    33   ar
    28    33    34   ar
    29    34    35   ar
    30    35    36   ar
    31    27    28   ar
    32    28    29   ar
    33    29    24   ar
    34    10     6   ar
    35    36    31   ar
    36    17    11   ar
    37     4     5    1
    38    15    18    1
    39    15    19    1
@<TRIPOS>MOLECULE
*****
 36 39 0 0 0
SMALL
GASTEIGER

@<TRIPOS>ATOM
      1 C          64.5627   92.7472   12.2597 C.3     1  UNL1        0.1799
      2 C          63.7613   91.6640   11.6008 C.2     1  UNL1        0.2478
      3 O          63.9978   91.3280   10.1582 O.2     1  UNL1       -0.2729
      4 N          62.7233   90.9167   12.3845 N.am    1  UNL1       -0.2627
      5 H          62.5681   91.1372   13.3314 H       1  UNL1        0.1568
      6 C          61.9219   89.8334   11.7256 C.ar    1  UNL1        0.1656
      7 N          60.5404   89.3977   12.1151 N.ar    1  UNL1       -0.2224
      8 C          60.1258   88.2907   11.1917 C.ar    1  UNL1        0.1073
      9 C          61.2512   88.0422   10.2315 C.ar    1  UNL1        0.0512
     10 S          62.3612   88.9957   10.5615 S.2     1  UNL1       -0.0513
     11 C          61.2643   87.0197    9.1340 C.ar    1  UNL1        0.0077
     12 C          60.0229   86.7649    8.3316 C.ar    1  UNL1        0.0018
     13 C          60.0360   85.7425    7.2341 C.ar    1  UNL1        0.0141
     14 C          61.2904   84.9748    6.9391 C.ar    1  UNL1        0.0415
     15 N          61.3035   83.9525    5.8417 N.pl3   1  UNL1       -0.3570
     16 C          62.5319   85.2297    7.7416 C.ar    1  UNL1        0.0141
     17 C          62.5187   86.2521    8.8390 C.ar    1  UNL1        0.0018
     18 H          60.4887   83.7852    5.3150 H       1  UNL1        0.1424
     19 H          62.1268   83.4486    5.6480 H       1  UNL1        0.1424
     20 C          66.4467   91.6392   13.6643 C.2     1  UNL1        0.2511
     21 O          67.9051   91.4283   13.9446 O.2     1  UNL1       -0.2698
     22 N          66.0212   92.5363   12.5400 N.am    1  UNL1       -0.2635
     23 C          62.3154   88.8947   17.0407 C.3     1  UNL1        0.0521
     24 C          63.3482   89.5809   16.1966 C.ar    1  UNL1        0.0594
     25 C          64.0118   88.8402   15.0737 C.ar    1  UNL1        0.0149
     26 C          65.0446   89.5263   14.2296 C.ar    1  UNL1        0.0073
     27 C          65.4139   90.9531   14.5084 C.ar    1  UNL1        0.0727
     28 C          64.7503   91.6938   15.6314 C.ar    1  UNL1        0.1029
     29 N          63.7175   91.0077   16.4755 N.ar    1  UNL1       -0.2480
     30 C          67.0540   93.2224   11.6959 C.3     1  UNL1        0.1209
     31 C          66.6804   94.4288   10.8866 C.ar    1  UNL1       -0.0023
     32 C          66.8533   94.4153    9.3967 C.ar    1  UNL1       -0.0026
     33 C          66.4797   95.6217    8.5873 C.ar    1  UNL1       -0.0003
     34 C          65.9332   96.8416    9.2679 C.ar    1  UNL1       -0.0000
     35 C          65.7603   96.8551   10.7579 C.ar    1  UNL1       -0.0003
     36 C          66.1339   95.6487   11.5672 C.ar    1  UNL1       -0.0026
@<TRIPOS>BOND
     1    23    24    1
     2    24    25   ar
     3    25    26   ar
     4    26    27   ar
     5    27    20    1
     6    20    21    2
     7    20    22   am
     8    22     1    1
     9     1     2    1
    10     2     3    2
    11     2     4   am
    12     4     6    1
    13     6     7   ar
    14     7     8   ar
    15     8     9   ar
    16     9    11    1
    17    11    12   ar
    18    12    13   ar
    19    13    14   ar
    20    14    15    1
    21    14    16   ar
    22    16    17   ar
    23     9    10   ar
    24    22    30    1
    25    30    31    1
    26    31    32   ar
    27    32    33   ar
    28    33    34   ar
    29    34    35   ar
    30    35    36   ar
    31    27    28   ar
    32    28    29   ar
    33    29    24   ar
    34    10     6   ar
    35    36    31   ar
    36    17    11   ar
    37     4     5    1
    38    15    18    1
    39    15    19    1
@<TRIPOS>MOLECULE
*****
 36 39 0 0 0
SMALL
GASTEIGER

@<TRIPOS>ATOM
      1 C          62.2332   86.8014   12.3616 C.3     1  UNL1        0.1799
      2 C          63.0871   88.0151   12.5799 C.2     1  UNL1        0.2478
      3 O          64.2296   87.9636   13.5505 O.2     1  UNL1       -0.2729
      4 N          62.7986   89.2804   11.8276 N.am    1  UNL1       -0.2627
      5 H          62.0487   89.3142   11.1905 H       1  UNL1        0.1568
      6 C          63.6525   90.4940   12.0459 C.ar    1  UNL1        0.1656
      7 N          64.0760   91.0468   13.3745 N.ar    1  UNL1       -0.2224
      8 C          64.9182   92.2625   13.1236 C.ar    1  UNL1        0.1073
      9 C          65.0151   92.4610   11.6399 C.ar    1  UNL1        0.0512
     10 S          64.2329   91.3681   10.9739 S.2     1  UNL1       -0.0513
     11 C          65.7630   93.5597   10.9445 C.ar    1  UNL1        0.0077
     12 C          66.5587   93.2598    9.7089 C.ar    1  UNL1        0.0018
     13 C          67.3066   94.3585    9.0134 C.ar    1  UNL1        0.0141
     14 C          67.2587   95.7570    9.5535 C.ar    1  UNL1        0.0415
     15 N          68.0065   96.8556    8.8581 N.pl3   1  UNL1       -0.3570
     16 C          66.4628   96.0569   10.7892 C.ar    1  UNL1        0.0141
     17 C          65.7150   94.9583   11.4846 C.ar    1  UNL1        0.0018
     18 H          68.5288   96.6588    8.0471 H       1  UNL1        0.1424
     19 H          67.9750   97.7735    9.2126 H       1  UNL1        0.1424
     20 C          62.5126   85.3829   10.2030 C.2     1  UNL1        0.2511
     21 O          63.0781   84.1845    9.5003 O.2     1  UNL1       -0.2698
     22 N          62.7987   85.6029   11.6588 N.am    1  UNL1       -0.2635
     23 C          59.1056   89.2965    7.1903 C.3     1  UNL1        0.0521
     24 C          59.9573   88.3181    7.9435 C.ar    1  UNL1        0.0594
     25 C          59.7574   86.8443    7.7488 C.ar    1  UNL1        0.0149
     26 C          60.6091   85.8659    8.5019 C.ar    1  UNL1        0.0073
     27 C          61.6608   86.3613    9.4498 C.ar    1  UNL1        0.0727
     28 C          61.8607   87.8351    9.6445 C.ar    1  UNL1        0.1029
     29 N          61.0090   88.8135    8.8913 N.ar    1  UNL1       -0.2480
     30 C          63.6505   84.6245   12.4120 C.3     1  UNL1        0.1209
     31 C          63.0938   83.2856   12.7959 C.ar    1  UNL1       -0.0023
     32 C          63.3042   82.1011   11.9001 C.ar    1  UNL1       -0.0026
     33 C          62.7475   80.7621   12.2840 C.ar    1  UNL1       -0.0003
     34 C          61.9805   80.6077   13.5638 C.ar    1  UNL1       -0.0000
     35 C          61.7701   81.7924   14.4597 C.ar    1  UNL1       -0.0003
     36 C          62.3268   83.1313   14.0757 C.ar    1  UNL1       -0.0026
@<TRIPOS>BOND
     1    23    24    1
     2    24    25   ar
     3    25    26   ar
     4    26    27   ar
     5    27    20    1
     6    20    21    2
     7    20    22   am
     8    22     1    1
     9     1     2    1
    10     2     3    2
    11     2     4   am
    12     4     6    1
    13     6     7   ar
    14     7     8   ar
    15     8     9   ar
    16     9    11    1
    17    11    12   ar
    18    12    13   ar
    19    13    14   ar
    20    14    15    1
    21    14    16   ar
    22    16    17   ar
    23     9    10   ar
    24    22    30    1
    25    30    31    1
    26    31    32   ar
    27    32    33   ar
    28    33    34   ar
    29    34    35   ar
    30    35    36   ar
    31    27    28   ar
    32    28    29   ar
    33    29    24   ar
    34    10     6   ar
    35    36    31   ar
    36    17    11   ar
    37     4     5    1
    38    15    18    1
    39    15    19    1
@<TRIPOS>MOLECULE
*****
 36 39 0 0 0
SMALL
GASTEIGER

@<TRIPOS>ATOM
      1 C          63.5994   91.0219   13.4832 C.3     1  UNL1        0.1799
      2 C          63.9116   89.5733   13.7157 C.2     1  UNL1        0.2478
      3 O          65.0167   89.1853   14.6528 O.2     1  UNL1       -0.2729
      4 N          63.1188   88.5127   13.0110 N.am    1  UNL1       -0.2627
      5 H          62.3935   88.7674   12.3959 H       1  UNL1        0.1568
      6 C          63.4310   87.0641   13.2434 C.ar    1  UNL1        0.1656
      7 N          64.2218   86.5054   14.3890 N.ar    1  UNL1       -0.2224
      8 C          64.2868   85.0159   14.2247 C.ar    1  UNL1        0.1073
      9 C          63.5361   84.6540   12.9775 C.ar    1  UNL1        0.0512
     10 S          63.0073   85.9199   12.3710 S.2     1  UNL1       -0.0513
     11 C          63.3475   83.2693   12.4324 C.ar    1  UNL1        0.0077
     12 C          63.7267   82.9636   11.0137 C.ar    1  UNL1        0.0018
     13 C          63.5381   81.5789   10.4686 C.ar    1  UNL1        0.0141
     14 C          62.9702   80.4999   11.3423 C.ar    1  UNL1        0.0415
     15 N          62.7816   79.1153   10.7972 N.pl3   1  UNL1       -0.3570
     16 C          62.5910   80.8057   12.7611 C.ar    1  UNL1        0.0141
     17 C          62.7797   82.1903   13.3060 C.ar    1  UNL1        0.0018
     18 H          63.0305   78.9147    9.8661 H       1  UNL1        0.1424
     19 H          62.4089   78.4071   11.3706 H       1  UNL1        0.1424
     20 C          63.8162   91.5164   10.9419 C.2     1  UNL1        0.2511
     21 O          64.4741   92.2538    9.8135 O.2     1  UNL1       -0.2698
     22 N          64.2574   91.7593   12.3548 N.am    1  UNL1       -0.2635
     23 C          59.4194   87.5955    9.8039 C.3     1  UNL1        0.0521
     24 C          60.5186   88.5757   10.0884 C.ar    1  UNL1        0.0594
     25 C          60.1948   89.9133   10.6851 C.ar    1  UNL1        0.0149
     26 C          61.2940   90.8935   10.9696 C.ar    1  UNL1        0.0073
     27 C          62.7170   90.5362   10.6574 C.ar    1  UNL1        0.0727
     28 C          63.0407   89.1986   10.0607 C.ar    1  UNL1        0.1029
     29 N          61.9415   88.2184    9.7762 N.ar    1  UNL1       -0.2480
     30 C          65.3566   92.7395   12.6392 C.3     1  UNL1        0.1209
     31 C          66.2863   92.5096   13.7936 C.ar    1  UNL1       -0.0023
     32 C          67.6555   91.9462   13.5532 C.ar    1  UNL1       -0.0026
     33 C          68.5853   91.7163   14.7076 C.ar    1  UNL1       -0.0003
     34 C          68.1459   92.0498   16.1025 C.ar    1  UNL1       -0.0000
     35 C          66.7766   92.6132   16.3429 C.ar    1  UNL1       -0.0003
     36 C          65.8469   92.8431   15.1885 C.ar    1  UNL1       -0.0026
@<TRIPOS>BOND
     1    23    24    1
     2    24    25   ar
     3    25    26   ar
     4    26    27   ar
     5    27    20    1
     6    20    21    2
     7    20    22   am
     8    22     1    1
     9     1     2    1
    10     2     3    2
    11     2     4   am
    12     4     6    1
    13     6     7   ar
    14     7     8   ar
    15     8     9   ar
    16     9    11    1
    17    11    12   ar
    18    12    13   ar
    19    13    14   ar
    20    14    15    1
    21    14    16   ar
    22    16    17   ar
    23     9    10   ar
    24    22    30    1
    25    30    31    1
    26    31    32   ar
    27    32    33   ar
    28    33    34   ar
    29    34    35   ar
    30    35    36   ar
    31    27    28   ar
    32    28    29   ar
    33    29    24   ar
    34    10     6   ar
    35    36    31   ar
    36    17    11   ar
    37     4     5    1
    38    15    18    1
    39    15    19    1
