@<TRIPOS>MOLECULE
*****
 34 38 0 0 0
SMALL
GASTEIGER

@<TRIPOS>ATOM
      1 N          63.0079   88.4764   12.6039 N.3     1  UNL1       -0.2658
      2 C          63.8738   88.0538   13.7535 C.3     1  UNL1        0.0625
      3 C          63.6407   89.5113   13.4863 C.3     1  UNL1        0.0164
      4 C          62.7747   89.9339   12.3367 C.3     1  UNL1        0.0035
      5 C          62.1420   88.8990   11.4543 C.3     1  UNL1        0.0248
      6 C          62.3751   87.4415   11.7216 C.3     1  UNL1        0.1039
      7 C          62.6083   85.9840   11.9888 C.2     1  UNL1        0.0716
      8 N          62.1213   84.7460   11.2958 N.2     1  UNL1       -0.2487
      9 C          62.6862   83.5583   12.0171 C.2     1  UNL1        0.0770
     10 C          62.5473   82.0831   11.7841 C.2     1  UNL1        0.0184
     11 C          63.2445   81.1118   12.6898 C.2     1  UNL1       -0.0027
     12 C          64.0807   81.6157   13.8286 C.2     1  UNL1       -0.0213
     13 C          64.2196   83.0910   14.0616 C.3     1  UNL1        0.0535
     14 C          63.5224   84.0623   13.1559 C.2     1  UNL1       -0.0029
     15 C          63.4742   85.5614   13.1384 C.2     1  UNL1       -0.0079
     16 C          64.1070   86.5963   14.0207 C.3     1  UNL1        0.0433
     17 C          61.5092   87.8641   10.5720 C.ar    1  UNL1        0.0508
     18 C          61.9508   87.5989    9.1633 C.ar    1  UNL1        0.1399
     19 F          63.2584   86.9112    8.9041 F       1  UNL1       -0.2044
     20 C          61.0848   88.0216    8.0137 C.ar    1  UNL1        0.0295
     21 C          59.7772   88.7093    8.2729 C.ar    1  UNL1        0.0045
     22 C          59.3356   88.9745    9.6817 C.ar    1  UNL1        0.0295
     23 C          60.2015   88.5519   10.8312 C.ar    1  UNL1        0.1399
     24 F          59.7600   88.8170   12.2400 F       1  UNL1       -0.2044
     25 C          58.9113   89.1319    7.1233 C.2     1  UNL1        0.0013
     26 C          59.0924   90.4871    6.5065 C.2     1  UNL1        0.0151
     27 C          58.2265   90.9098    5.3568 C.2     1  UNL1        0.0729
     28 O          56.7484   90.6580    5.3990 O.co2   1  UNL1       -0.5446
     29 O          58.8387   91.5843    4.1651 O.co2   1  UNL1       -0.5446
     30 C          62.7747   89.9339   12.3367 C.3     1  UNL1        0.1054
     31 C          63.3706   90.4862   10.3771 C.3     1  UNL1        0.0368
     32 C          63.8740   90.7759   11.7601 C.3     1  UNL1        0.1486
     33 C          64.3775   91.0655   13.1430 C.3     1  UNL1        0.0368
     34 F          64.9734   91.6179   11.1835 F       1  UNL1       -0.2386
@<TRIPOS>UNITY_ATOM_ATTR
28 1
charge -1
@<TRIPOS>BOND
     1    31    32    1
     2    32    33    1
     3    32    34    1
     4    32    30    1
     5    30     1    1
     6     1     2    1
     7     2     3    1
     8     3     4    1
     9     4     5    1
    10     5     6    1
    11     6    17    1
    12    17    18   ar
    13    18    19    1
    14    18    20   ar
    15    20    21   ar
    16    21    25    1
    17    25    26    2
    18    26    27    1
    19    27    28   ar
    20    27    29   ar
    21    21    22   ar
    22    22    23   ar
    23    23    24    1
    24     6     7    1
    25     7     8    2
    26     8     9    1
    27     9    10    2
    28    10    11    1
    29    11    12    2
    30    12    13    1
    31    13    14    1
    32    14    15    2
    33    15    16    1
    34     6     1    1
    35    23    17   ar
    36    15     7    1
    37    16     2    1
    38    14     9    1
@<TRIPOS>MOLECULE
*****
 34 38 0 0 0
SMALL
GASTEIGER

@<TRIPOS>ATOM
      1 N          63.0025   95.9152   -1.1064 N.3     1  UNL1       -0.2658
      2 C          63.4579   96.6626   -2.3245 C.3     1  UNL1        0.0625
      3 C          64.3866   96.4909   -1.1592 C.3     1  UNL1        0.0164
      4 C          63.9312   95.7435    0.0590 C.3     1  UNL1        0.0035
      5 C          62.5471   95.1678    0.1118 C.3     1  UNL1        0.0248
      6 C          61.6184   95.3396   -1.0536 C.3     1  UNL1        0.1039
      7 C          60.6897   95.5113   -2.2190 C.2     1  UNL1        0.0716
      8 N          59.2791   95.0585   -2.4535 N.2     1  UNL1       -0.2487
      9 C          58.8627   95.5260   -3.8166 C.2     1  UNL1        0.0770
     10 C          57.5823   95.3722   -4.5827 C.2     1  UNL1        0.0184
     11 C          57.4553   95.9601   -5.9568 C.2     1  UNL1       -0.0027
     12 C          58.6087   96.7018   -6.5648 C.2     1  UNL1       -0.0213
     13 C          59.8890   96.8557   -5.7986 C.3     1  UNL1        0.0535
     14 C          60.0160   96.2678   -4.4245 C.2     1  UNL1       -0.0029
     15 C          61.1452   96.2586   -3.4372 C.2     1  UNL1       -0.0079
     16 C          62.5293   96.8343   -3.4899 C.3     1  UNL1        0.0433
     17 C          61.1630   94.5922    0.1646 C.ar    1  UNL1        0.0508
     18 C          60.5903   95.3393    1.3323 C.ar    1  UNL1        0.1399
     19 F          60.4730   96.8338    1.2820 F       1  UNL1       -0.2044
     20 C          60.1349   94.5918    2.5506 C.ar    1  UNL1        0.0295
     21 C          60.2522   93.0972    2.6009 C.ar    1  UNL1        0.0045
     22 C          60.8249   92.3501    1.4331 C.ar    1  UNL1        0.0295
     23 C          61.2802   93.0975    0.2150 C.ar    1  UNL1        0.1399
     24 F          61.8530   92.3505   -0.9529 F       1  UNL1       -0.2044
     25 C          59.7967   92.3498    3.8191 C.2     1  UNL1        0.0013
     26 C          58.3553   91.9613    3.9653 C.2     1  UNL1        0.0151
     27 C          57.8998   91.2138    5.1835 C.2     1  UNL1        0.0729
     28 O          58.9076   90.5685    6.0879 O.co2   1  UNL1       -0.5446
     29 O          56.4366   91.1117    5.4972 O.co2   1  UNL1       -0.5446
     30 C          63.9312   95.7435    0.0590 C.3     1  UNL1        0.1054
     31 C          64.4449   94.6702    1.8151 C.3     1  UNL1        0.0368
     32 C          64.5390   94.4018    0.3423 C.3     1  UNL1        0.1486
     33 C          64.6331   94.1334   -1.1304 C.3     1  UNL1        0.0368
     34 F          65.1468   93.0601    0.6257 F       1  UNL1       -0.2386
@<TRIPOS>UNITY_ATOM_ATTR
28 1
charge -1
@<TRIPOS>BOND
     1    31    32    1
     2    32    33    1
     3    32    34    1
     4    32    30    1
     5    30     1    1
     6     1     2    1
     7     2     3    1
     8     3     4    1
     9     4     5    1
    10     5     6    1
    11     6    17    1
    12    17    18   ar
    13    18    19    1
    14    18    20   ar
    15    20    21   ar
    16    21    25    1
    17    25    26    2
    18    26    27    1
    19    27    28   ar
    20    27    29   ar
    21    21    22   ar
    22    22    23   ar
    23    23    24    1
    24     6     7    1
    25     7     8    2
    26     8     9    1
    27     9    10    2
    28    10    11    1
    29    11    12    2
    30    12    13    1
    31    13    14    1
    32    14    15    2
    33    15    16    1
    34     6     1    1
    35    23    17   ar
    36    15     7    1
    37    16     2    1
    38    14     9    1
@<TRIPOS>MOLECULE
*****
 34 38 0 0 0
SMALL
GASTEIGER

@<TRIPOS>ATOM
      1 N          63.1425   96.1165   -0.9377 N.3     1  UNL1       -0.2658
      2 C          63.6334   96.8522   -2.1492 C.3     1  UNL1        0.0625
      3 C          64.4493   96.8514   -0.8905 C.3     1  UNL1        0.0164
      4 C          63.9584   96.1157    0.3210 C.3     1  UNL1        0.0035
      5 C          62.6516   95.3808    0.2739 C.3     1  UNL1        0.0248
      6 C          61.8357   95.3817   -0.9848 C.3     1  UNL1        0.1039
      7 C          61.0197   95.3826   -2.2435 C.2     1  UNL1        0.0716
      8 N          59.7025   94.7522   -2.5862 N.2     1  UNL1       -0.2487
      9 C          59.3792   95.0983   -4.0095 C.2     1  UNL1        0.0770
     10 C          58.2117   94.7538   -4.8859 C.2     1  UNL1        0.0184
     11 C          58.1617   95.2535   -6.2993 C.2     1  UNL1       -0.0027
     12 C          59.2792   96.0978   -6.8363 C.2     1  UNL1       -0.0213
     13 C          60.4467   96.4423   -5.9599 C.3     1  UNL1        0.0535
     14 C          60.4967   95.9426   -4.5465 C.2     1  UNL1       -0.0029
     15 C          61.5106   96.1183   -3.4550 C.2     1  UNL1       -0.0079
     16 C          62.8174   96.8531   -3.4079 C.3     1  UNL1        0.0433
     17 C          61.3448   94.6460    0.2267 C.ar    1  UNL1        0.0508
     18 C          61.6171   93.1784    0.3744 C.ar    1  UNL1        0.1399
     19 F          62.3803   92.4464   -0.6894 F       1  UNL1       -0.2044
     20 C          61.1262   92.4427    1.5860 C.ar    1  UNL1        0.0295
     21 C          60.3630   93.1747    2.6498 C.ar    1  UNL1        0.0045
     22 C          60.0907   94.6424    2.5021 C.ar    1  UNL1        0.0295
     23 C          60.5816   95.3780    1.2906 C.ar    1  UNL1        0.1399
     24 F          60.3093   96.8457    1.1428 F       1  UNL1       -0.2044
     25 C          59.8721   92.4390    3.8613 C.2     1  UNL1        0.0013
     26 C          58.4586   91.9400    3.9141 C.2     1  UNL1        0.0151
     27 C          57.9677   91.2042    5.1256 C.2     1  UNL1        0.0729
     28 O          56.5088   91.2225    5.4741 O.co2   1  UNL1       -0.5446
     29 O          58.9355   90.4503    5.9886 O.co2   1  UNL1       -0.5446
     30 C          63.9584   96.1157    0.3210 C.3     1  UNL1        0.1054
     31 C          64.9946   94.5597   -0.6815 C.3     1  UNL1        0.0368
     32 C          64.6732   94.8689    0.7506 C.3     1  UNL1        0.1486
     33 C          64.3518   95.1781    2.1828 C.3     1  UNL1        0.0368
     34 F          65.3880   93.6221    1.1802 F       1  UNL1       -0.2386
@<TRIPOS>UNITY_ATOM_ATTR
28 1
charge -1
@<TRIPOS>BOND
     1    31    32    1
     2    32    33    1
     3    32    34    1
     4    32    30    1
     5    30     1    1
     6     1     2    1
     7     2     3    1
     8     3     4    1
     9     4     5    1
    10     5     6    1
    11     6    17    1
    12    17    18   ar
    13    18    19    1
    14    18    20   ar
    15    20    21   ar
    16    21    25    1
    17    25    26    2
    18    26    27    1
    19    27    28   ar
    20    27    29   ar
    21    21    22   ar
    22    22    23   ar
    23    23    24    1
    24     6     7    1
    25     7     8    2
    26     8     9    1
    27     9    10    2
    28    10    11    1
    29    11    12    2
    30    12    13    1
    31    13    14    1
    32    14    15    2
    33    15    16    1
    34     6     1    1
    35    23    17   ar
    36    15     7    1
    37    16     2    1
    38    14     9    1
@<TRIPOS>MOLECULE
*****
 34 38 0 0 0
SMALL
GASTEIGER

@<TRIPOS>ATOM
      1 N          60.6477   93.5533   -1.2935 N.3     1  UNL1       -0.2658
      2 C          62.0500   93.1416   -0.9557 C.3     1  UNL1        0.0625
      3 C          60.9935   93.1494    0.1091 C.3     1  UNL1        0.0164
      4 C          59.5912   93.5611   -0.2287 C.3     1  UNL1        0.0035
      5 C          59.2454   93.9649   -1.6313 C.3     1  UNL1        0.0248
      6 C          60.3019   93.9571   -2.6961 C.3     1  UNL1        0.1039
      7 C          61.3584   93.9492   -3.7609 C.2     1  UNL1        0.0716
      8 N          61.3154   94.2938   -5.2201 N.2     1  UNL1       -0.2487
      9 C          62.6910   94.0952   -5.7842 C.2     1  UNL1        0.0770
     10 C          63.2456   94.2795   -7.1656 C.2     1  UNL1        0.0184
     11 C          64.6935   93.9964   -7.4364 C.2     1  UNL1       -0.0027
     12 C          65.5868   93.5289   -6.3257 C.2     1  UNL1       -0.0213
     13 C          65.0322   93.3446   -4.9443 C.3     1  UNL1        0.0535
     14 C          63.5843   93.6277   -4.6735 C.2     1  UNL1       -0.0029
     15 C          62.7607   93.5375   -3.4231 C.2     1  UNL1       -0.0079
     16 C          63.1065   93.1337   -2.0205 C.3     1  UNL1        0.0433
     17 C          58.8997   94.3688   -3.0339 C.ar    1  UNL1        0.0508
     18 C          58.5141   95.8178   -2.9977 C.ar    1  UNL1        0.1399
     19 F          59.5308   96.8553   -2.6237 F       1  UNL1       -0.2044
     20 C          57.1118   96.2295   -3.3355 C.ar    1  UNL1        0.0295
     21 C          56.0950   95.1920   -3.7095 C.ar    1  UNL1        0.0045
     22 C          56.4806   93.7428   -3.7457 C.ar    1  UNL1        0.0295
     23 C          57.8829   93.3312   -3.4079 C.ar    1  UNL1        0.1399
     24 F          58.2685   91.8821   -3.4441 F       1  UNL1       -0.2044
     25 C          54.6928   95.6037   -4.0473 C.2     1  UNL1        0.0013
     26 C          53.6636   95.7210   -2.9624 C.2     1  UNL1        0.0151
     27 C          52.2613   96.1327   -3.3002 C.2     1  UNL1        0.0729
     28 O          51.9806   96.8558   -4.5840 O.co2   1  UNL1       -0.5446
     29 O          51.1397   95.8213   -2.3541 O.co2   1  UNL1       -0.5446
     30 C          59.5912   93.5611   -0.2287 C.3     1  UNL1        0.1054
     31 C          59.8900   95.6040    0.2586 C.3     1  UNL1        0.0368
     32 C          59.8126   94.3271    1.0419 C.3     1  UNL1        0.1486
     33 C          59.7352   93.0502    1.8251 C.3     1  UNL1        0.0368
     34 F          60.0340   95.0930    2.3124 F       1  UNL1       -0.2386
@<TRIPOS>UNITY_ATOM_ATTR
28 1
charge -1
@<TRIPOS>BOND
     1    31    32    1
     2    32    33    1
     3    32    34    1
     4    32    30    1
     5    30     1    1
     6     1     2    1
     7     2     3    1
     8     3     4    1
     9     4     5    1
    10     5     6    1
    11     6    17    1
    12    17    18   ar
    13    18    19    1
    14    18    20   ar
    15    20    21   ar
    16    21    25    1
    17    25    26    2
    18    26    27    1
    19    27    28   ar
    20    27    29   ar
    21    21    22   ar
    22    22    23   ar
    23    23    24    1
    24     6     7    1
    25     7     8    2
    26     8     9    1
    27     9    10    2
    28    10    11    1
    29    11    12    2
    30    12    13    1
    31    13    14    1
    32    14    15    2
    33    15    16    1
    34     6     1    1
    35    23    17   ar
    36    15     7    1
    37    16     2    1
    38    14     9    1
@<TRIPOS>MOLECULE
*****
 34 38 0 0 0
SMALL
GASTEIGER

@<TRIPOS>ATOM
      1 N          63.7901   85.9316   13.3613 N.3     1  UNL1       -0.2658
      2 C          63.8034   87.4202   13.5454 C.3     1  UNL1        0.0625
      3 C          64.5625   86.5403   14.4939 C.3     1  UNL1        0.0164
      4 C          64.5492   85.0517   14.3098 C.3     1  UNL1        0.0035
      5 C          63.7768   84.4430   13.1772 C.3     1  UNL1        0.0248
      6 C          63.0177   85.3228   12.2287 C.3     1  UNL1        0.1039
      7 C          62.2586   86.2027   11.2801 C.2     1  UNL1        0.0716
      8 N          61.4136   85.8915   10.0805 N.2     1  UNL1       -0.2487
      9 C          60.9046   87.1878    9.5232 C.2     1  UNL1        0.0770
     10 C          60.0267   87.4990    8.3475 C.2     1  UNL1        0.0184
     11 C          59.6792   88.9226    8.0270 C.2     1  UNL1       -0.0027
     12 C          60.2097   90.0349    8.8822 C.2     1  UNL1       -0.0213
     13 C          61.0876   89.7237   10.0579 C.3     1  UNL1        0.0535
     14 C          61.4351   88.3001   10.3784 C.2     1  UNL1       -0.0029
     15 C          62.2719   87.6913   11.4642 C.2     1  UNL1       -0.0079
     16 C          63.0443   88.3000   12.5968 C.3     1  UNL1        0.0433
     17 C          63.0045   83.8342   12.0446 C.ar    1  UNL1        0.0508
     18 C          63.8321   83.2048   10.9635 C.ar    1  UNL1        0.1399
     19 F          64.6731   84.0640   10.0665 F       1  UNL1       -0.2044
     20 C          63.8188   81.7161   10.7795 C.ar    1  UNL1        0.0295
     21 C          62.9779   80.8570   11.6765 C.ar    1  UNL1        0.0045
     22 C          62.1502   81.4865   12.7576 C.ar    1  UNL1        0.0295
     23 C          62.1635   82.9750   12.9416 C.ar    1  UNL1        0.1399
     24 F          61.3358   83.6045   14.0227 F       1  UNL1       -0.2044
     25 C          62.9646   79.3684   11.4924 C.2     1  UNL1        0.0013
     26 C          63.4651   78.7665   10.2129 C.2     1  UNL1        0.0151
     27 C          63.4518   77.2778   10.0287 C.2     1  UNL1        0.0729
     28 O          62.4244   76.4439   10.7350 O.co2   1  UNL1       -0.5446
     29 O          64.4660   76.6232    9.1383 O.co2   1  UNL1       -0.5446
     30 C          64.5492   85.0517   14.3098 C.3     1  UNL1        0.1054
     31 C          63.1515   85.6406   15.7929 C.3     1  UNL1        0.0368
     32 C          63.8287   84.3538   15.4250 C.3     1  UNL1        0.1486
     33 C          64.5059   83.0669   15.0572 C.3     1  UNL1        0.0368
     34 F          63.1083   83.6558   16.5403 F       1  UNL1       -0.2386
@<TRIPOS>UNITY_ATOM_ATTR
28 1
charge -1
@<TRIPOS>BOND
     1    31    32    1
     2    32    33    1
     3    32    34    1
     4    32    30    1
     5    30     1    1
     6     1     2    1
     7     2     3    1
     8     3     4    1
     9     4     5    1
    10     5     6    1
    11     6    17    1
    12    17    18   ar
    13    18    19    1
    14    18    20   ar
    15    20    21   ar
    16    21    25    1
    17    25    26    2
    18    26    27    1
    19    27    28   ar
    20    27    29   ar
    21    21    22   ar
    22    22    23   ar
    23    23    24    1
    24     6     7    1
    25     7     8    2
    26     8     9    1
    27     9    10    2
    28    10    11    1
    29    11    12    2
    30    12    13    1
    31    13    14    1
    32    14    15    2
    33    15    16    1
    34     6     1    1
    35    23    17   ar
    36    15     7    1
    37    16     2    1
    38    14     9    1
