@<TRIPOS>MOLECULE
*****
 41 46 0 0 0
SMALL
GASTEIGER

@<TRIPOS>ATOM
      1 C          61.7066   88.7415   11.3621 C.ar    1  UNL1        0.0040
      2 C          61.3762   87.7971   10.2445 C.ar    1  UNL1        0.0719
      3 C          61.9746   86.4617   10.5741 C.ar    1  UNL1        0.1049
      4 N          62.6747   86.5808   11.8954 N.ar    1  UNL1       -0.2242
      5 N          63.4417   85.5883   12.7179 N.ar    1  UNL1       -0.1422
      6 C          64.0430   86.0048   14.0274 C.ar    1  UNL1        0.2211
      7 N          63.8774   87.4138   14.5144 N.ar    1  UNL1       -0.2060
      8 C          63.1104   88.4063   13.6919 C.ar    1  UNL1        0.1515
      9 C          62.5091   87.9898   12.3824 C.ar    1  UNL1        0.1107
     10 C          60.5862   88.1297    9.0136 C.ar    1  UNL1        0.2525
     11 N          59.4415   87.3347    8.4591 N.ar    1  UNL1       -0.1057
     12 N          58.9500   88.0293    7.2237 N.ar    1  UNL1       -0.0921
     13 C          59.7911   89.2536    7.0148 C.ar    1  UNL1        0.3120
     14 O          60.8023   89.3156    8.1209 O.2     1  UNL1       -0.4046
     15 N          59.6463   90.2423    5.8961 N.pl3   1  UNL1       -0.2596
     16 C          58.2923   90.7828    5.5433 C.3     1  UNL1        0.1125
     17 C          58.1476   91.7715    4.4246 C.3     1  UNL1        0.0940
     18 N          59.3569   92.2197    3.6587 N.3     1  UNL1       -0.2686
     19 C          59.2122   93.2085    2.5400 C.3     1  UNL1        0.0897
     20 C          60.7109   91.6793    4.0115 C.3     1  UNL1        0.0940
     21 C          60.8556   90.6906    5.1302 C.3     1  UNL1        0.1125
     22 C          59.9112   90.5523   11.8601 C.3     1  UNL1        0.0047
     23 C          61.3049   90.1844   11.4449 C.3     1  UNL1        0.0241
     24 C          62.2968   91.2593   11.1125 C.3     1  UNL1        0.0047
     25 N          62.9447   89.8154   14.1789 N.pl3   1  UNL1       -0.2949
     26 H          62.0451   90.1692   14.3654 H       1  UNL1        0.1537
     27 C          64.1497   90.6854   14.3817 C.ar    1  UNL1        0.0775
     28 C          65.0826   90.9530   13.2379 C.ar    1  UNL1        0.0237
     29 C          66.2875   91.8230   13.4407 C.ar    1  UNL1        0.0821
     30 C          66.5597   92.4254   14.7872 C.ar    1  UNL1        0.1468
     31 F          67.7647   93.2954   14.9899 F       1  UNL1       -0.2039
     32 C          65.6268   92.1578   15.9309 C.ar    1  UNL1        0.0607
     33 C          64.4218   91.2877   15.7282 C.ar    1  UNL1        0.1557
     34 F          63.4890   91.0201   16.8719 F       1  UNL1       -0.2028
     35 C          67.2205   92.0907   12.2969 C.2     1  UNL1        0.2480
     36 O          68.6815   91.7795   12.4322 O.2     1  UNL1       -0.2701
     37 N          66.6922   92.6696   11.0179 N.am    1  UNL1       -0.3024
     38 H          65.7332   92.8738   10.9291 H       1  UNL1        0.1497
     39 C          67.6250   92.9372    9.8742 C.3     1  UNL1        0.0720
     40 C          68.1705   93.8699    8.8337 C.3     1  UNL1        0.0213
     41 C          68.6952   92.4682    8.9336 C.3     1  UNL1        0.0213
@<TRIPOS>BOND
     1    22    23    1
     2    23    24    1
     3    23     1    1
     4     1     2   ar
     5     2    10    1
     6    10    11   ar
     7    11    12   ar
     8    12    13   ar
     9    13    15    1
    10    15    16    1
    11    16    17    1
    12    17    18    1
    13    18    19    1
    14    18    20    1
    15    20    21    1
    16    13    14   ar
    17     2     3   ar
    18     3     4   ar
    19     4     5   ar
    20     5     6   ar
    21     6     7   ar
    22     7     8   ar
    23     8    25    1
    24    25    27    1
    25    27    28   ar
    26    28    29   ar
    27    29    35    1
    28    35    36    2
    29    35    37   am
    30    37    39    1
    31    39    40    1
    32    40    41    1
    33    29    30   ar
    34    30    31    1
    35    30    32   ar
    36    32    33   ar
    37    33    34    1
    38     8     9   ar
    39     9     1   ar
    40    14    10   ar
    41     9     4   ar
    42    21    15    1
    43    33    27   ar
    44    41    39    1
    45    25    26    1
    46    37    38    1
@<TRIPOS>MOLECULE
*****
 41 46 0 0 0
SMALL
GASTEIGER

@<TRIPOS>ATOM
      1 C          63.4616   88.7907   13.1507 C.ar    1  UNL1        0.0040
      2 C          64.6353   89.5039   13.7538 C.ar    1  UNL1        0.0719
      3 C          65.3512   88.5402   14.6530 C.ar    1  UNL1        0.1049
      4 N          64.6200   87.2313   14.6057 N.ar    1  UNL1       -0.2242
      5 N          64.8667   85.9186   15.2881 N.ar    1  UNL1       -0.1422
      6 C          63.9455   84.7606   15.0421 C.ar    1  UNL1        0.2211
      7 N          62.7777   84.9154   14.1136 N.ar    1  UNL1       -0.2060
      8 C          62.5309   86.2282   13.4311 C.ar    1  UNL1        0.1515
      9 C          63.4521   87.3861   13.6772 C.ar    1  UNL1        0.1107
     10 C          65.0247   90.9304   13.5019 C.ar    1  UNL1        0.2525
     11 N          65.0938   92.0203   14.5302 N.ar    1  UNL1       -0.1057
     12 N          65.5252   93.2810   13.8412 N.ar    1  UNL1       -0.0921
     13 C          65.7227   92.9703   12.3871 C.ar    1  UNL1        0.3120
     14 O          65.4134   91.5175   12.1774 O.2     1  UNL1       -0.4046
     15 N          66.1538   93.9416   11.3286 N.pl3   1  UNL1       -0.2596
     16 C          66.6650   93.4377   10.0115 C.3     1  UNL1        0.1125
     17 C          67.0961   94.4091    8.9531 C.3     1  UNL1        0.0940
     18 N          67.0160   95.8845    9.2116 N.3     1  UNL1       -0.2686
     19 C          67.4471   96.8560    8.1530 C.3     1  UNL1        0.0897
     20 C          66.5048   96.3884   10.5286 C.3     1  UNL1        0.0940
     21 C          66.0737   95.4170   11.5871 C.3     1  UNL1        0.1125
     22 C          61.0916   89.7351   12.6590 C.3     1  UNL1        0.0047
     23 C          62.4712   89.3787   12.1898 C.3     1  UNL1        0.0241
     24 C          62.8601   89.6104   10.7599 C.3     1  UNL1        0.0047
     25 N          61.3631   86.3830   12.5027 N.pl3   1  UNL1       -0.2949
     26 H          60.4798   86.6310   12.8598 H       1  UNL1        0.1537
     27 C          61.5410   86.1600   11.0301 C.ar    1  UNL1        0.0775
     28 C          60.7026   86.9247   10.0490 C.ar    1  UNL1        0.0237
     29 C          60.8805   86.7017    8.5764 C.ar    1  UNL1        0.0821
     30 C          61.8967   85.7140    8.0848 C.ar    1  UNL1        0.1468
     31 F          62.0746   85.4910    6.6121 F       1  UNL1       -0.2039
     32 C          62.7351   84.9493    9.0658 C.ar    1  UNL1        0.0607
     33 C          62.5572   85.1723   10.5385 C.ar    1  UNL1        0.1557
     34 F          63.3956   84.4076   11.5194 F       1  UNL1       -0.2028
     35 C          60.0421   87.4664    7.5953 C.2     1  UNL1        0.2480
     36 O          59.0484   86.7441    6.7348 O.2     1  UNL1       -0.2701
     37 N          60.1976   88.9535    7.4749 N.am    1  UNL1       -0.3024
     38 H          60.8498   89.4276    8.0397 H       1  UNL1        0.1497
     39 C          59.3593   89.7182    6.4939 C.3     1  UNL1        0.0720
     40 C          59.2487   90.7210    5.3838 C.3     1  UNL1        0.0213
     41 C          58.0179   90.0400    5.9048 C.3     1  UNL1        0.0213
@<TRIPOS>BOND
     1    22    23    1
     2    23    24    1
     3    23     1    1
     4     1     2   ar
     5     2    10    1
     6    10    11   ar
     7    11    12   ar
     8    12    13   ar
     9    13    15    1
    10    15    16    1
    11    16    17    1
    12    17    18    1
    13    18    19    1
    14    18    20    1
    15    20    21    1
    16    13    14   ar
    17     2     3   ar
    18     3     4   ar
    19     4     5   ar
    20     5     6   ar
    21     6     7   ar
    22     7     8   ar
    23     8    25    1
    24    25    27    1
    25    27    28   ar
    26    28    29   ar
    27    29    35    1
    28    35    36    2
    29    35    37   am
    30    37    39    1
    31    39    40    1
    32    40    41    1
    33    29    30   ar
    34    30    31    1
    35    30    32   ar
    36    32    33   ar
    37    33    34    1
    38     8     9   ar
    39     9     1   ar
    40    14    10   ar
    41     9     4   ar
    42    21    15    1
    43    33    27   ar
    44    41    39    1
    45    25    26    1
    46    37    38    1
@<TRIPOS>MOLECULE
*****
 41 46 0 0 0
SMALL
GASTEIGER

@<TRIPOS>ATOM
      1 C          61.2390   88.8762   10.0084 C.ar    1  UNL1        0.0040
      2 C          60.8929   88.2869    8.6731 C.ar    1  UNL1        0.0719
      3 C          61.3057   86.8449    8.6818 C.ar    1  UNL1        0.1049
      4 N          61.9070   86.5429   10.0225 N.ar    1  UNL1       -0.2242
      5 N          62.4867   85.2870   10.6026 N.ar    1  UNL1       -0.1422
      6 C          63.0252   85.2866   12.0026 C.ar    1  UNL1        0.2211
      7 N          62.9839   86.5420   12.8225 N.ar    1  UNL1       -0.2060
      8 C          62.4042   87.7979   12.2423 C.ar    1  UNL1        0.1515
      9 C          61.8657   87.7983   10.8424 C.ar    1  UNL1        0.1107
     10 C          60.2473   89.0123    7.5299 C.ar    1  UNL1        0.2525
     11 N          58.7931   88.9658    7.1647 N.ar    1  UNL1       -0.1057
     12 N          58.5896   89.8363    5.9602 N.ar    1  UNL1       -0.0921
     13 C          59.9179   90.4208    5.5809 C.ar    1  UNL1        0.3120
     14 O          60.9424   89.9115    6.5510 O.2     1  UNL1       -0.4046
     15 N          60.1765   91.3512    4.4331 N.pl3   1  UNL1       -0.2596
     16 C          59.0377   92.0914    3.7964 C.3     1  UNL1        0.1125
     17 C          59.2963   93.0217    2.6487 C.3     1  UNL1        0.0940
     18 N          60.6936   93.2119    2.1375 N.3     1  UNL1       -0.2686
     19 C          60.9522   94.1423    0.9896 C.3     1  UNL1        0.0897
     20 C          61.8323   92.4717    2.7740 C.3     1  UNL1        0.0940
     21 C          61.5738   91.5413    3.9219 C.3     1  UNL1        0.1125
     22 C          62.0655   91.3296   10.2265 C.3     1  UNL1        0.0047
     23 C          61.0002   90.2943   10.4349 C.3     1  UNL1        0.0241
     24 C          59.6963   90.6772   11.0697 C.3     1  UNL1        0.0047
     25 N          62.3629   89.0533   13.0622 N.pl3   1  UNL1       -0.2949
     26 H          61.4981   89.4230   13.3532 H       1  UNL1        0.1537
     27 C          63.6392   89.7455   13.4387 C.ar    1  UNL1        0.0775
     28 C          64.1034   90.9395   12.6582 C.ar    1  UNL1        0.0237
     29 C          65.3797   91.6317   13.0346 C.ar    1  UNL1        0.0821
     30 C          66.1920   91.1300   14.1916 C.ar    1  UNL1        0.1468
     31 F          67.4683   91.8223   14.5680 F       1  UNL1       -0.2039
     32 C          65.7279   89.9361   14.9721 C.ar    1  UNL1        0.0607
     33 C          64.4515   89.2439   14.5956 C.ar    1  UNL1        0.1557
     34 F          63.9874   88.0500   15.3761 F       1  UNL1       -0.2028
     35 C          65.8438   92.8256   12.2541 C.2     1  UNL1        0.2480
     36 O          65.9525   94.1634   12.9237 O.2     1  UNL1       -0.2701
     37 N          66.1994   92.6817   10.8040 N.am    1  UNL1       -0.3024
     38 H          66.1281   91.8036   10.3645 H       1  UNL1        0.1497
     39 C          66.6635   93.8756   10.0235 C.3     1  UNL1        0.0720
     40 C          66.9190   95.3510    9.9358 C.3     1  UNL1        0.0213
     41 C          67.2118   94.4680    8.7592 C.3     1  UNL1        0.0213
@<TRIPOS>BOND
     1    22    23    1
     2    23    24    1
     3    23     1    1
     4     1     2   ar
     5     2    10    1
     6    10    11   ar
     7    11    12   ar
     8    12    13   ar
     9    13    15    1
    10    15    16    1
    11    16    17    1
    12    17    18    1
    13    18    19    1
    14    18    20    1
    15    20    21    1
    16    13    14   ar
    17     2     3   ar
    18     3     4   ar
    19     4     5   ar
    20     5     6   ar
    21     6     7   ar
    22     7     8   ar
    23     8    25    1
    24    25    27    1
    25    27    28   ar
    26    28    29   ar
    27    29    35    1
    28    35    36    2
    29    35    37   am
    30    37    39    1
    31    39    40    1
    32    40    41    1
    33    29    30   ar
    34    30    31    1
    35    30    32   ar
    36    32    33   ar
    37    33    34    1
    38     8     9   ar
    39     9     1   ar
    40    14    10   ar
    41     9     4   ar
    42    21    15    1
    43    33    27   ar
    44    41    39    1
    45    25    26    1
    46    37    38    1
@<TRIPOS>MOLECULE
*****
 41 46 0 0 0
SMALL
GASTEIGER

@<TRIPOS>ATOM
      1 C          61.4513   88.9517   10.0578 C.ar    1  UNL1        0.0040
      2 C          62.2715   88.0236   10.9039 C.ar    1  UNL1        0.0719
      3 C          62.1302   86.6392   10.3441 C.ar    1  UNL1        0.1049
      4 N          61.2226   86.7116    9.1520 N.ar    1  UNL1       -0.2242
      5 N          60.7240   85.6609    8.2048 N.ar    1  UNL1       -0.1422
      6 C          59.8059   86.0394    7.0806 C.ar    1  UNL1        0.2211
      7 N          59.3864   87.4686    6.9037 N.ar    1  UNL1       -0.2060
      8 C          59.8849   88.5194    7.8509 C.ar    1  UNL1        0.1515
      9 C          60.8031   88.1409    8.9751 C.ar    1  UNL1        0.1107
     10 C          63.0895   88.4117   12.0999 C.ar    1  UNL1        0.2525
     11 N          63.3057   87.5785   13.3283 N.ar    1  UNL1       -0.1057
     12 N          64.1847   88.3530   14.2651 N.ar    1  UNL1       -0.0921
     13 C          64.5118   89.6650   13.6156 C.ar    1  UNL1        0.3120
     14 O          63.8349   89.7012   12.2774 O.2     1  UNL1       -0.4046
     15 N          65.3657   90.7501   14.2013 N.pl3   1  UNL1       -0.2596
     16 C          66.5925   91.2143   13.4736 C.3     1  UNL1        0.1125
     17 C          67.4464   92.2994   14.0594 C.3     1  UNL1        0.0940
     18 N          67.0736   92.9204   15.3729 N.3     1  UNL1       -0.2686
     19 C          67.9276   94.0056   15.9587 C.3     1  UNL1        0.0897
     20 C          65.8469   92.4563   16.1006 C.3     1  UNL1        0.0940
     21 C          64.9929   91.3712   15.5148 C.3     1  UNL1        0.1125
     22 C          60.0644   90.9819   10.8973 C.3     1  UNL1        0.0047
     23 C          61.3051   90.4309   10.2591 C.3     1  UNL1        0.0241
     24 C          62.3993   91.3591    9.8224 C.3     1  UNL1        0.0047
     25 N          59.4654   89.9486    7.6740 N.pl3   1  UNL1       -0.2949
     26 H          59.1901   90.4811    8.4550 H       1  UNL1        0.1537
     27 C          59.4652   90.5665    6.3072 C.ar    1  UNL1        0.0775
     28 C          60.7642   90.8781    5.6248 C.ar    1  UNL1        0.0237
     29 C          60.7641   91.4961    4.2581 C.ar    1  UNL1        0.0821
     30 C          59.4649   91.8023    3.5736 C.ar    1  UNL1        0.1468
     31 F          59.4648   92.4203    2.2067 F       1  UNL1       -0.2039
     32 C          58.1660   91.4907    4.2559 C.ar    1  UNL1        0.0607
     33 C          58.1661   90.8728    5.6228 C.ar    1  UNL1        0.1557
     34 F          56.8672   90.5611    6.3051 F       1  UNL1       -0.2028
     35 C          62.0630   91.8077    3.5757 C.2     1  UNL1        0.2480
     36 O          63.2427   90.8994    3.7578 O.2     1  UNL1       -0.2701
     37 N          62.1822   93.0277    2.7112 N.am    1  UNL1       -0.3024
     38 H          61.4079   93.6239    2.5916 H       1  UNL1        0.1497
     39 C          63.4811   93.3394    2.0288 C.3     1  UNL1        0.0720
     40 C          64.5705   92.9557    1.0717 C.3     1  UNL1        0.0213
     41 C          64.6415   94.2629    1.8040 C.3     1  UNL1        0.0213
@<TRIPOS>BOND
     1    22    23    1
     2    23    24    1
     3    23     1    1
     4     1     2   ar
     5     2    10    1
     6    10    11   ar
     7    11    12   ar
     8    12    13   ar
     9    13    15    1
    10    15    16    1
    11    16    17    1
    12    17    18    1
    13    18    19    1
    14    18    20    1
    15    20    21    1
    16    13    14   ar
    17     2     3   ar
    18     3     4   ar
    19     4     5   ar
    20     5     6   ar
    21     6     7   ar
    22     7     8   ar
    23     8    25    1
    24    25    27    1
    25    27    28   ar
    26    28    29   ar
    27    29    35    1
    28    35    36    2
    29    35    37   am
    30    37    39    1
    31    39    40    1
    32    40    41    1
    33    29    30   ar
    34    30    31    1
    35    30    32   ar
    36    32    33   ar
    37    33    34    1
    38     8     9   ar
    39     9     1   ar
    40    14    10   ar
    41     9     4   ar
    42    21    15    1
    43    33    27   ar
    44    41    39    1
    45    25    26    1
    46    37    38    1
