@<TRIPOS>MOLECULE
*****
 49 55 0 0 0
SMALL
GASTEIGER

@<TRIPOS>ATOM
      1 C          59.8778   89.8308    6.9902 C.ar    1  UNL1        0.0481
      2 C          59.5226   88.3735    6.9885 C.ar    1  UNL1        0.0176
      3 C          59.5998   87.5812    8.2599 C.ar    1  UNL1        0.0382
      4 C          60.0323   88.2463    9.5329 C.ar    1  UNL1        0.1388
      5 C          60.3876   89.7037    9.5345 C.ar    1  UNL1        0.0382
      6 C          60.3103   90.4959    8.2632 C.ar    1  UNL1        0.0176
      7 N          59.6460   92.2074    3.1760 N.pl3   1  UNL1       -0.3041
      8 C          60.9631   91.6591    3.6391 C.3     1  UNL1        0.1122
      9 C          61.0404   90.8668    4.9105 C.3     1  UNL1        0.1122
     10 N          59.8006   90.6230    5.7188 N.pl3   1  UNL1       -0.3041
     11 C          58.4834   91.1713    5.2556 C.3     1  UNL1        0.1122
     12 C          58.4061   91.9635    3.9843 C.3     1  UNL1        0.1122
     13 C          59.4141   94.5841   -0.6381 C.ar    1  UNL1        0.0699
     14 C          60.2126   95.1023    0.5211 C.ar    1  UNL1        0.0190
     15 C          60.2899   94.3101    1.7924 C.ar    1  UNL1        0.0160
     16 C          59.5687   92.9996    1.9046 C.ar    1  UNL1        0.0480
     17 C          58.7701   92.4814    0.7454 C.ar    1  UNL1        0.0160
     18 C          58.6928   93.2737   -0.5259 C.ar    1  UNL1        0.0190
     19 N          59.8918   96.3364   -4.0684 N.ar    1  UNL1       -0.2024
     20 N          58.5436   96.8546   -3.6635 N.ar    1  UNL1       -0.1442
     21 C          58.2006   96.2612   -2.3293 C.ar    1  UNL1        0.2073
     22 N          59.3368   95.3764   -1.9095 N.ar    1  UNL1       -0.2398
     23 C          60.3820   95.4228   -2.9844 C.ar    1  UNL1        0.3522
     24 O          61.6881   94.6852   -2.9766 O.2     1  UNL1       -0.2444
     25 C          60.6217   96.6727   -5.3350 C.3     1  UNL1        0.1099
     26 C          59.8596   96.8551   -6.6140 C.3     1  UNL1        0.0265
     27 C          62.9339   96.2768   -6.4515 C.3     1  UNL1        0.0021
     28 C          62.1137   96.8267   -5.3226 C.3     1  UNL1        0.0245
     29 O          60.1096   87.4541   10.8043 O.3     1  UNL1       -0.4727
     30 C          61.4450   87.0624   11.3639 C.3     1  UNL1        0.2374
     31 C          62.2928   88.0821   12.0651 C.3     1  UNL1        0.1909
     32 C          62.2799   89.5612   11.8159 C.3     1  UNL1        0.1783
     33 O          63.2813   90.1949   12.7353 O.3     1  UNL1       -0.3266
     34 C          63.9131   89.1075   13.5529 C.3     1  UNL1        0.2315
     35 O          63.3021   87.8017   13.1387 O.3     1  UNL1       -0.3254
     36 C          64.6901   90.2352   14.1648 C.ar    1  UNL1        0.0410
     37 C          65.8448   90.8399   13.4225 C.ar    1  UNL1        0.0022
     38 C          66.6218   91.9677   14.0344 C.ar    1  UNL1        0.0113
     39 C          66.2442   92.4908   15.3884 C.ar    1  UNL1        0.0585
     40 CL         67.0212   93.6185   16.0003 Cl      1  UNL1       -0.0822
     41 C          65.0895   91.8861   16.1308 C.ar    1  UNL1        0.0226
     42 C          64.3124   90.7583   15.5190 C.ar    1  UNL1        0.0591
     43 CL         63.1577   90.1536   16.2613 Cl      1  UNL1       -0.0824
     44 C          64.7073   88.2558   14.4984 C.3     1  UNL1        0.1897
     45 N          64.1238   86.9800   15.0292 N.ar    1  UNL1       -0.2246
     46 C          63.5290   86.7824   16.3919 C.ar    1  UNL1        0.1974
     47 N          63.0702   85.3581   16.4955 N.ar    1  UNL1       -0.2007
     48 C          63.3815   84.6753   15.1967 C.ar    1  UNL1        0.2210
     49 N          64.0327   85.6777   14.2905 N.ar    1  UNL1       -0.1450
@<TRIPOS>BOND
     1    27    28    1
     2    28    25    1
     3    25    26    1
     4    25    19    1
     5    19    20   ar
     6    20    21   ar
     7    21    22   ar
     8    22    13    1
     9    13    14   ar
    10    14    15   ar
    11    15    16   ar
    12    16     7    1
    13     7     8    1
    14     8     9    1
    15     9    10    1
    16    10     1    1
    17     1     2   ar
    18     2     3   ar
    19     3     4   ar
    20     4    29    1
    21    29    30    1
    22    31    30    1
    23    31    32    1
    24    32    33    1
    25    33    34    1
    26    34    44    1
    27    44    45    1
    28    45    46   ar
    29    46    47   ar
    30    47    48   ar
    31    48    49   ar
    32    34    36    1
    33    36    37   ar
    34    37    38   ar
    35    38    39   ar
    36    39    40    1
    37    39    41   ar
    38    41    42   ar
    39    42    43    1
    40    34    35    1
    41     4     5   ar
    42     5     6   ar
    43    10    11    1
    44    11    12    1
    45    16    17   ar
    46    17    18   ar
    47    22    23   ar
    48    23    24    2
    49    23    19   ar
    50    18    13   ar
    51    12     7    1
    52     6     1   ar
    53    35    31    1
    54    49    45   ar
    55    42    36   ar
@<TRIPOS>MOLECULE
*****
 49 55 0 0 0
SMALL
GASTEIGER

@<TRIPOS>ATOM
      1 C          59.4430   93.4714    1.8126 C.ar    1  UNL1        0.0481
      2 C          58.6296   92.9718    0.6555 C.ar    1  UNL1        0.0176
      3 C          58.4053   93.8512   -0.5389 C.ar    1  UNL1        0.0382
      4 C          58.9943   95.2302   -0.5761 C.ar    1  UNL1        0.1388
      5 C          59.8077   95.7298    0.5811 C.ar    1  UNL1        0.0382
      6 C          60.0320   94.8504    1.7754 C.ar    1  UNL1        0.0176
      7 N          60.1158   90.8332    5.3954 N.pl3   1  UNL1       -0.3041
      8 C          61.2756   91.2415    4.5363 C.3     1  UNL1        0.1122
      9 C          61.0513   92.1209    3.3420 C.3     1  UNL1        0.1122
     10 N          59.6672   92.5920    3.0068 N.pl3   1  UNL1       -0.3041
     11 C          58.5074   92.1836    3.8660 C.3     1  UNL1        0.1122
     12 C          58.7317   91.3042    5.0603 C.3     1  UNL1        0.1122
     13 C          60.7885   88.1949    8.9783 C.ar    1  UNL1        0.0699
     14 C          59.9823   87.6922    7.8175 C.ar    1  UNL1        0.0190
     15 C          59.7581   88.5716    6.6233 C.ar    1  UNL1        0.0160
     16 C          60.3400   89.9537    6.5898 C.ar    1  UNL1        0.0480
     17 C          61.1462   90.4564    7.7505 C.ar    1  UNL1        0.0160
     18 C          61.3704   89.5770    8.9448 C.ar    1  UNL1        0.0190
     19 N          61.8416   85.5479   11.6146 N.ar    1  UNL1       -0.2024
     20 N          60.8739   86.3765   12.4064 N.ar    1  UNL1       -0.1442
     21 C          60.3617   87.4689   11.5152 C.ar    1  UNL1        0.2073
     22 N          61.0127   87.3154   10.1726 N.ar    1  UNL1       -0.2398
     23 C          61.9274   86.1282   10.2340 C.ar    1  UNL1        0.3522
     24 O          62.7784   85.6118    9.1119 O.2     1  UNL1       -0.2444
     25 C          62.5918   84.3494   12.1154 C.3     1  UNL1        0.1099
     26 C          63.0576   84.2976   13.5403 C.3     1  UNL1        0.0265
     27 C          64.2887   82.8929   10.7927 C.3     1  UNL1        0.0021
     28 C          62.8762   83.2025   11.1913 C.3     1  UNL1        0.0245
     29 O          58.7700   96.1096   -1.7703 O.3     1  UNL1       -0.4727
     30 C          58.8216   95.5264   -3.1513 C.3     1  UNL1        0.2374
     31 C          60.1427   95.3347   -3.8357 C.3     1  UNL1        0.1909
     32 C          60.3473   94.8139   -5.2274 C.3     1  UNL1        0.1783
     33 O          61.8220   94.7875   -5.5004 O.3     1  UNL1       -0.3266
     34 C          62.5288   95.2921   -4.2773 C.3     1  UNL1        0.2315
     35 O          61.4909   95.6302   -3.2485 O.3     1  UNL1       -0.3254
     36 C          63.7686   95.0487   -5.0857 C.ar    1  UNL1        0.0410
     37 C          64.4401   96.1897   -5.7908 C.ar    1  UNL1        0.0022
     38 C          65.6800   95.9464   -6.5994 C.ar    1  UNL1        0.0113
     39 C          66.2483   94.5621   -6.7027 C.ar    1  UNL1        0.0585
     40 CL         67.4881   94.3187   -7.5112 Cl      1  UNL1       -0.0822
     41 C          65.5768   93.4210   -5.9976 C.ar    1  UNL1        0.0226
     42 C          64.3369   93.6644   -5.1891 C.ar    1  UNL1        0.0591
     43 CL         63.6654   92.5234   -4.4840 Cl      1  UNL1       -0.0824
     44 C          63.4948   95.7457   -3.2232 C.3     1  UNL1        0.1897
     45 N          63.4455   95.1422   -1.8509 N.ar    1  UNL1       -0.2246
     46 C          64.0237   95.7409   -0.6031 C.ar    1  UNL1        0.1974
     47 N          63.7448   94.8027    0.5335 N.ar    1  UNL1       -0.2007
     48 C          62.9943   93.6240   -0.0118 C.ar    1  UNL1        0.2210
     49 N          62.8093   93.8338   -1.4855 N.ar    1  UNL1       -0.1450
@<TRIPOS>BOND
     1    27    28    1
     2    28    25    1
     3    25    26    1
     4    25    19    1
     5    19    20   ar
     6    20    21   ar
     7    21    22   ar
     8    22    13    1
     9    13    14   ar
    10    14    15   ar
    11    15    16   ar
    12    16     7    1
    13     7     8    1
    14     8     9    1
    15     9    10    1
    16    10     1    1
    17     1     2   ar
    18     2     3   ar
    19     3     4   ar
    20     4    29    1
    21    29    30    1
    22    31    30    1
    23    31    32    1
    24    32    33    1
    25    33    34    1
    26    34    44    1
    27    44    45    1
    28    45    46   ar
    29    46    47   ar
    30    47    48   ar
    31    48    49   ar
    32    34    36    1
    33    36    37   ar
    34    37    38   ar
    35    38    39   ar
    36    39    40    1
    37    39    41   ar
    38    41    42   ar
    39    42    43    1
    40    34    35    1
    41     4     5   ar
    42     5     6   ar
    43    10    11    1
    44    11    12    1
    45    16    17   ar
    46    17    18   ar
    47    22    23   ar
    48    23    24    2
    49    23    19   ar
    50    18    13   ar
    51    12     7    1
    52     6     1   ar
    53    35    31    1
    54    49    45   ar
    55    42    36   ar
@<TRIPOS>MOLECULE
*****
 49 55 0 0 0
SMALL
GASTEIGER

@<TRIPOS>ATOM
      1 C          60.0938   89.6908    7.4753 C.ar    1  UNL1        0.0481
      2 C          59.8714   88.2074    7.4683 C.ar    1  UNL1        0.0176
      3 C          60.0222   87.4204    8.7364 C.ar    1  UNL1        0.0382
      4 C          60.3954   88.1168   10.0114 C.ar    1  UNL1        0.1388
      5 C          60.6178   89.6003   10.0183 C.ar    1  UNL1        0.0382
      6 C          60.4670   90.3872    8.7503 C.ar    1  UNL1        0.0176
      7 N          59.6415   92.0516    3.6711 N.pl3   1  UNL1       -0.3041
      8 C          58.4340   91.7237    4.4984 C.3     1  UNL1        0.1122
      9 C          58.5847   90.9368    5.7665 C.3     1  UNL1        0.1122
     10 N          59.9430   90.4777    6.2073 N.pl3   1  UNL1       -0.3041
     11 C          61.1506   90.8056    5.3799 C.3     1  UNL1        0.1122
     12 C          60.9998   91.5926    4.1119 C.3     1  UNL1        0.1122
     13 C          59.1893   94.4125   -0.1330 C.ar    1  UNL1        0.0699
     14 C          59.9735   94.9797    1.0129 C.ar    1  UNL1        0.0190
     15 C          60.1242   94.1928    2.2809 C.ar    1  UNL1        0.0160
     16 C          59.4907   92.8386    2.4030 C.ar    1  UNL1        0.0480
     17 C          58.7066   92.2714    1.2570 C.ar    1  UNL1        0.0160
     18 C          58.5559   93.0583   -0.0110 C.ar    1  UNL1        0.0190
     19 N          59.3099   95.9668   -3.6876 N.ar    1  UNL1       -0.2024
     20 N          58.3032   96.8542   -3.0173 N.ar    1  UNL1       -0.1442
     21 C          58.1355   96.3799   -1.6042 C.ar    1  UNL1        0.2073
     22 N          59.0386   95.1995   -1.4012 N.ar    1  UNL1       -0.2398
     23 C          59.7644   94.9442   -2.6888 C.ar    1  UNL1        0.3522
     24 O          60.7683   93.8572   -2.9345 O.2     1  UNL1       -0.2444
     25 C          59.7796   96.0820   -5.1076 C.3     1  UNL1        0.1099
     26 C          61.1643   96.5783   -5.4016 C.3     1  UNL1        0.0265
     27 C          58.4915   94.2632   -6.4428 C.3     1  UNL1        0.0021
     28 C          58.8648   95.7008   -6.2335 C.3     1  UNL1        0.0245
     29 O          60.5462   87.3299   11.2794 O.3     1  UNL1       -0.4727
     30 C          61.9046   86.8719   11.7208 C.3     1  UNL1        0.2374
     31 C          62.8039   87.8076   12.4730 C.3     1  UNL1        0.1909
     32 C          63.8718   87.4104   13.4487 C.3     1  UNL1        0.1783
     33 O          64.5211   88.6620   13.9603 O.3     1  UNL1       -0.3266
     34 C          63.8545   89.8329   13.3008 C.3     1  UNL1        0.2315
     35 O          62.7932   89.3048   12.3816 O.3     1  UNL1       -0.3254
     36 C          64.8185   90.6410   14.1178 C.ar    1  UNL1        0.0410
     37 C          66.1949   90.9224   13.5923 C.ar    1  UNL1        0.0022
     38 C          67.1590   91.7306   14.4093 C.ar    1  UNL1        0.0113
     39 C          66.7467   92.2572   15.7518 C.ar    1  UNL1        0.0585
     40 CL         67.7107   93.0654   16.5688 Cl      1  UNL1       -0.0822
     41 C          65.3702   91.9759   16.2775 C.ar    1  UNL1        0.0226
     42 C          64.4061   91.1677   15.4604 C.ar    1  UNL1        0.0591
     43 CL         63.0297   90.8863   15.9860 Cl      1  UNL1       -0.0824
     44 C          63.3895   91.1726   12.8121 C.3     1  UNL1        0.1897
     45 N          64.2986   92.0224   11.9747 N.ar    1  UNL1       -0.2246
     46 C          64.6714   91.7699   10.5439 C.ar    1  UNL1        0.1974
     47 N          65.5977   92.8653   10.1060 N.ar    1  UNL1       -0.2007
     48 C          65.7974   93.7950   11.2661 C.ar    1  UNL1        0.2210
     49 N          64.9945   93.2740   12.4210 N.ar    1  UNL1       -0.1450
@<TRIPOS>BOND
     1    27    28    1
     2    28    25    1
     3    25    26    1
     4    25    19    1
     5    19    20   ar
     6    20    21   ar
     7    21    22   ar
     8    22    13    1
     9    13    14   ar
    10    14    15   ar
    11    15    16   ar
    12    16     7    1
    13     7     8    1
    14     8     9    1
    15     9    10    1
    16    10     1    1
    17     1     2   ar
    18     2     3   ar
    19     3     4   ar
    20     4    29    1
    21    29    30    1
    22    31    30    1
    23    31    32    1
    24    32    33    1
    25    33    34    1
    26    34    44    1
    27    44    45    1
    28    45    46   ar
    29    46    47   ar
    30    47    48   ar
    31    48    49   ar
    32    34    36    1
    33    36    37   ar
    34    37    38   ar
    35    38    39   ar
    36    39    40    1
    37    39    41   ar
    38    41    42   ar
    39    42    43    1
    40    34    35    1
    41     4     5   ar
    42     5     6   ar
    43    10    11    1
    44    11    12    1
    45    16    17   ar
    46    17    18   ar
    47    22    23   ar
    48    23    24    2
    49    23    19   ar
    50    18    13   ar
    51    12     7    1
    52     6     1   ar
    53    35    31    1
    54    49    45   ar
    55    42    36   ar
@<TRIPOS>MOLECULE
*****
 49 55 0 0 0
SMALL
GASTEIGER

@<TRIPOS>ATOM
      1 C          60.3807   90.3873    7.0153 C.ar    1  UNL1        0.0481
      2 C          61.3926   90.9132    7.9896 C.ar    1  UNL1        0.0176
      3 C          61.5155   90.2946    9.3507 C.ar    1  UNL1        0.0382
      4 C          60.6263   89.1501    9.7373 C.ar    1  UNL1        0.1388
      5 C          59.6144   88.6241    8.7628 C.ar    1  UNL1        0.0382
      6 C          59.4916   89.2427    7.4019 C.ar    1  UNL1        0.0176
      7 N          60.0125   92.2430    2.9323 N.pl3   1  UNL1       -0.3041
      8 C          58.7970   92.0859    3.7971 C.3     1  UNL1        0.1122
      9 C          58.9197   91.4673    5.1581 C.3     1  UNL1        0.1122
     10 N          60.2580   91.0058    5.6543 N.pl3   1  UNL1       -0.3041
     11 C          61.4735   91.1630    4.7895 C.3     1  UNL1        0.1122
     12 C          61.3507   91.7816    3.4285 C.3     1  UNL1        0.1122
     13 C          59.6444   94.0987   -1.1507 C.ar    1  UNL1        0.0699
     14 C          59.8548   92.6197   -1.0153 C.ar    1  UNL1        0.0190
     15 C          59.9775   92.0012    0.3457 C.ar    1  UNL1        0.0160
     16 C          59.8898   92.8616    1.5713 C.ar    1  UNL1        0.0480
     17 C          59.6793   94.3406    1.4359 C.ar    1  UNL1        0.0160
     18 C          59.5566   94.9591    0.0749 C.ar    1  UNL1        0.0190
     19 N          58.7347   95.2394   -4.7475 N.ar    1  UNL1       -0.2024
     20 N          59.9310   96.0990   -4.4646 N.ar    1  UNL1       -0.1442
     21 C          60.4173   95.7763   -3.0829 C.ar    1  UNL1        0.2073
     22 N          59.5216   94.7173   -2.5117 N.ar    1  UNL1       -0.2398
     23 C          58.4817   94.3854   -3.5405 C.ar    1  UNL1        0.3522
     24 O          57.3819   93.3768   -3.3890 O.2     1  UNL1       -0.2444
     25 C          57.9323   95.2346   -6.0148 C.3     1  UNL1        0.1099
     26 C          58.4422   94.5058   -7.2226 C.3     1  UNL1        0.0265
     27 C          55.3723   95.2921   -5.5751 C.3     1  UNL1        0.0021
     28 C          56.6199   95.9585   -6.0743 C.3     1  UNL1        0.0245
     29 O          60.7491   88.5315   11.0982 O.3     1  UNL1       -0.4727
     30 C          62.0330   87.8747   11.5104 C.3     1  UNL1        0.2374
     31 C          62.1425   86.3786   11.5147 C.3     1  UNL1        0.1909
     32 C          61.5351   85.4472   10.5080 C.3     1  UNL1        0.1783
     33 O          61.8957   84.0443   10.8976 O.3     1  UNL1       -0.3266
     34 C          62.7261   84.1087   12.1452 C.3     1  UNL1        0.2315
     35 O          62.8786   85.5514   12.5266 O.3     1  UNL1       -0.3254
     36 C          62.7482   82.6142   12.0190 C.ar    1  UNL1        0.0410
     37 C          62.1005   81.7632   13.0708 C.ar    1  UNL1        0.0022
     38 C          62.1225   80.2686   12.9447 C.ar    1  UNL1        0.0113
     39 C          62.7922   79.6251   11.7669 C.ar    1  UNL1        0.0585
     40 CL         62.8142   78.1306   11.6407 Cl      1  UNL1       -0.0822
     41 C          63.4398   80.4761   10.7150 C.ar    1  UNL1        0.0226
     42 C          63.4178   81.9707   10.8411 C.ar    1  UNL1        0.0591
     43 CL         64.0655   82.8218    9.7893 Cl      1  UNL1       -0.0824
     44 C          63.5611   83.8606   13.3663 C.3     1  UNL1        0.1897
     45 N          63.2439   84.5711   14.6488 N.ar    1  UNL1       -0.2246
     46 C          61.9669   84.4574   15.4273 C.ar    1  UNL1        0.1974
     47 N          62.0819   85.3360   16.6375 N.ar    1  UNL1       -0.2007
     48 C          63.4301   85.9929   16.6069 C.ar    1  UNL1        0.2210
     49 N          64.1483   85.5201   15.3778 N.ar    1  UNL1       -0.1450
@<TRIPOS>BOND
     1    27    28    1
     2    28    25    1
     3    25    26    1
     4    25    19    1
     5    19    20   ar
     6    20    21   ar
     7    21    22   ar
     8    22    13    1
     9    13    14   ar
    10    14    15   ar
    11    15    16   ar
    12    16     7    1
    13     7     8    1
    14     8     9    1
    15     9    10    1
    16    10     1    1
    17     1     2   ar
    18     2     3   ar
    19     3     4   ar
    20     4    29    1
    21    29    30    1
    22    31    30    1
    23    31    32    1
    24    32    33    1
    25    33    34    1
    26    34    44    1
    27    44    45    1
    28    45    46   ar
    29    46    47   ar
    30    47    48   ar
    31    48    49   ar
    32    34    36    1
    33    36    37   ar
    34    37    38   ar
    35    38    39   ar
    36    39    40    1
    37    39    41   ar
    38    41    42   ar
    39    42    43    1
    40    34    35    1
    41     4     5   ar
    42     5     6   ar
    43    10    11    1
    44    11    12    1
    45    16    17   ar
    46    17    18   ar
    47    22    23   ar
    48    23    24    2
    49    23    19   ar
    50    18    13   ar
    51    12     7    1
    52     6     1   ar
    53    35    31    1
    54    49    45   ar
    55    42    36   ar
@<TRIPOS>MOLECULE
*****
 49 55 0 0 0
SMALL
GASTEIGER

@<TRIPOS>ATOM
      1 C          60.1381   89.9636    7.2695 C.ar    1  UNL1        0.0481
      2 C          60.8661   90.5977    8.4175 C.ar    1  UNL1        0.0176
      3 C          60.9492   89.8884    9.7366 C.ar    1  UNL1        0.0382
      4 C          60.3044   88.5449    9.9076 C.ar    1  UNL1        0.1388
      5 C          59.5763   87.9108    8.7596 C.ar    1  UNL1        0.0382
      6 C          59.4932   88.6201    7.4406 C.ar    1  UNL1        0.0176
      7 N          59.8887   92.0917    3.3124 N.pl3   1  UNL1       -0.3041
      8 C          58.6507   91.8909    4.1353 C.3     1  UNL1        0.1122
      9 C          58.7338   91.1815    5.4544 C.3     1  UNL1        0.1122
     10 N          60.0549   90.6730    5.9505 N.pl3   1  UNL1       -0.3041
     11 C          61.2929   90.8738    5.1275 C.3     1  UNL1        0.1122
     12 C          61.2097   91.5831    3.8085 C.3     1  UNL1        0.1122
     13 C          59.6393   94.2198   -0.6448 C.ar    1  UNL1        0.0699
     14 C          58.4388   93.5028   -0.1018 C.ar    1  UNL1        0.0190
     15 C          58.5220   92.7935    1.2172 C.ar    1  UNL1        0.0160
     16 C          59.8056   92.8011    1.9933 C.ar    1  UNL1        0.0480
     17 C          61.0060   93.5180    1.4503 C.ar    1  UNL1        0.0160
     18 C          60.9229   94.2274    0.1313 C.ar    1  UNL1        0.0190
     19 N          59.2266   95.3794   -4.3259 N.ar    1  UNL1       -0.2024
     20 N          59.6301   96.6622   -3.6614 N.ar    1  UNL1       -0.1442
     21 C          59.8338   96.3840   -2.2016 C.ar    1  UNL1        0.2073
     22 N          59.5562   94.9291   -1.9639 N.ar    1  UNL1       -0.2398
     23 C          59.1809   94.3083   -3.2768 C.ar    1  UNL1        0.3522
     24 O          58.8229   92.8691   -3.5012 O.2     1  UNL1       -0.2444
     25 C          58.9222   95.1992   -5.7836 C.3     1  UNL1        0.1099
     26 C          57.5640   95.5496   -6.3151 C.3     1  UNL1        0.0265
     27 C          61.4237   94.7554   -6.3271 C.3     1  UNL1        0.0021
     28 C          59.9760   94.6688   -6.7099 C.3     1  UNL1        0.0245
     29 O          60.3875   87.8355   11.2267 O.3     1  UNL1       -0.4727
     30 C          61.6812   87.2154   11.6644 C.3     1  UNL1        0.2374
     31 C          61.8955   85.7389   11.5093 C.3     1  UNL1        0.1909
     32 C          61.6778   84.9431   10.2566 C.3     1  UNL1        0.1783
     33 O          62.0129   83.5114   10.5527 O.3     1  UNL1       -0.3266
     34 C          62.4377   83.4222   11.9886 C.3     1  UNL1        0.2315
     35 O          62.3652   84.7989   12.5798 O.3     1  UNL1       -0.3254
     36 C          62.6064   81.9631   11.6842 C.ar    1  UNL1        0.0410
     37 C          63.1772   81.5333   10.3654 C.ar    1  UNL1        0.0022
     38 C          63.3459   80.0741   10.0609 C.ar    1  UNL1        0.0113
     39 C          62.9439   79.0450   11.0753 C.ar    1  UNL1        0.0585
     40 CL         63.1126   77.5860   10.7710 Cl      1  UNL1       -0.0822
     41 C          62.3731   79.4748   12.3942 C.ar    1  UNL1        0.0226
     42 C          62.2043   80.9340   12.6987 C.ar    1  UNL1        0.0591
     43 CL         61.6335   81.3638   14.0175 Cl      1  UNL1       -0.0824
     44 C          62.8978   83.0280   13.3607 C.3     1  UNL1        0.1897
     45 N          63.4053   84.0723   14.3105 N.ar    1  UNL1       -0.2246
     46 C          64.8008   84.6205   14.3546 C.ar    1  UNL1        0.1974
     47 N          64.8643   85.6387   15.4542 N.ar    1  UNL1       -0.2007
     48 C          63.5080   85.7198   16.0897 C.ar    1  UNL1        0.2210
     49 N          62.6063   84.7516   15.3829 N.ar    1  UNL1       -0.1450
@<TRIPOS>BOND
     1    27    28    1
     2    28    25    1
     3    25    26    1
     4    25    19    1
     5    19    20   ar
     6    20    21   ar
     7    21    22   ar
     8    22    13    1
     9    13    14   ar
    10    14    15   ar
    11    15    16   ar
    12    16     7    1
    13     7     8    1
    14     8     9    1
    15     9    10    1
    16    10     1    1
    17     1     2   ar
    18     2     3   ar
    19     3     4   ar
    20     4    29    1
    21    29    30    1
    22    31    30    1
    23    31    32    1
    24    32    33    1
    25    33    34    1
    26    34    44    1
    27    44    45    1
    28    45    46   ar
    29    46    47   ar
    30    47    48   ar
    31    48    49   ar
    32    34    36    1
    33    36    37   ar
    34    37    38   ar
    35    38    39   ar
    36    39    40    1
    37    39    41   ar
    38    41    42   ar
    39    42    43    1
    40    34    35    1
    41     4     5   ar
    42     5     6   ar
    43    10    11    1
    44    11    12    1
    45    16    17   ar
    46    17    18   ar
    47    22    23   ar
    48    23    24    2
    49    23    19   ar
    50    18    13   ar
    51    12     7    1
    52     6     1   ar
    53    35    31    1
    54    49    45   ar
    55    42    36   ar
