@<TRIPOS>MOLECULE
*****
 37 41 0 0 0
SMALL
GASTEIGER

@<TRIPOS>ATOM
      1 N          63.1095   91.0260   11.7184 N.am    1  UNL1       -0.2438
      2 C          63.5878   91.7044   10.4691 C.3     1  UNL1        0.1009
      3 C          64.7664   92.6308   10.5229 C.3     1  UNL1        0.0662
      4 C          65.4666   92.8787   11.8260 C.3     1  UNL1        0.1600
      5 O          64.9883   92.2002   13.0754 O.3     1  UNL1       -0.4374
      6 C          63.8097   91.2739   13.0217 C.2     1  UNL1        0.4051
      7 O          63.3314   90.5955   14.2710 O.2     1  UNL1       -0.2262
      8 C          66.2871   93.7481   10.9199 C.ar    1  UNL1        0.0138
      9 C          66.2449   95.2398   11.0714 C.ar    1  UNL1       -0.0010
     10 C          67.0654   96.1092   10.1653 C.ar    1  UNL1       -0.0002
     11 C          67.9281   95.4868    9.1078 C.ar    1  UNL1       -0.0000
     12 C          67.9703   93.9951    8.9563 C.ar    1  UNL1       -0.0002
     13 C          67.1498   93.1257    9.8624 C.ar    1  UNL1       -0.0010
     14 C          60.5381   90.6547   11.7091 C.3     1  UNL1        0.0265
     15 C          61.9309   90.0997   11.6647 C.3     1  UNL1        0.1011
     16 C          62.1452   88.6183   11.5665 C.ar    1  UNL1       -0.0042
     17 C          61.4344   87.8260   10.5096 C.ar    1  UNL1       -0.0026
     18 C          61.6487   86.3447   10.4114 C.ar    1  UNL1        0.0013
     19 C          62.5739   85.6556   11.3702 C.ar    1  UNL1        0.0193
     20 C          63.2847   86.4478   12.4270 C.ar    1  UNL1        0.0013
     21 C          63.0704   87.9291   12.5252 C.ar    1  UNL1       -0.0026
     22 C          62.7882   84.1742   11.2720 C.ar    1  UNL1        0.1011
     23 C          63.5814   83.6050   10.1332 C.ar    1  UNL1        0.0258
     24 C          63.7957   82.1236   10.0350 C.ar    1  UNL1        0.0638
     25 C          63.2167   81.2114   11.0756 C.ar    1  UNL1        0.2764
     26 O          63.4310   79.7301   10.9775 O.2     1  UNL1       -0.2655
     27 N          62.4234   81.7807   12.2144 N.ar    1  UNL1       -0.2186
     28 N          62.2092   83.2620   12.3125 N.ar    1  UNL1       -0.1669
     29 C          61.8445   80.8686   13.2550 C.3     1  UNL1        0.1085
     30 C          60.7135   80.4862   14.1630 C.3     1  UNL1        0.0265
     31 C          61.9727   79.6712   14.1492 C.3     1  UNL1        0.0265
     32 C          66.4518   93.4285   12.8145 C.3     1  UNL1        0.0714
     33 C          67.1178   92.5127   13.7982 C.3     1  UNL1        0.0922
     34 C          66.4552   93.2442   14.9278 C.3     1  UNL1        0.0294
     35 C          67.7805   91.7813   12.6687 C.3     1  UNL1        0.0294
     36 O          67.7838   91.5970   14.7820 O.3     1  UNL1       -0.3866
     37 H          67.5233   91.8456   15.6827 H       1  UNL1        0.2102
@<TRIPOS>BOND
     1    15    14    1
     2    15    16    1
     3    16    17   ar
     4    17    18   ar
     5    18    19   ar
     6    19    22    1
     7    22    23   ar
     8    23    24   ar
     9    24    25   ar
    10    25    26    2
    11    25    27   ar
    12    27    29    1
    13    29    30    1
    14    30    31    1
    15    27    28   ar
    16    19    20   ar
    17    20    21   ar
    18    15     1    1
    19     1     2    1
    20     2     3    1
    21     3     4    1
    22     4    32    1
    23    32    33    1
    24    33    34    1
    25    33    35    1
    26    33    36    1
    27     4     8    1
    28     8     9   ar
    29     9    10   ar
    30    10    11   ar
    31    11    12   ar
    32    12    13   ar
    33     4     5    1
    34     5     6    1
    35     6     7    2
    36    21    16   ar
    37     6     1   am
    38    28    22   ar
    39    13     8   ar
    40    31    29    1
    41    36    37    1
@<TRIPOS>MOLECULE
*****
 37 41 0 0 0
SMALL
GASTEIGER

@<TRIPOS>ATOM
      1 N          63.4905   90.2925   11.8624 N.am    1  UNL1       -0.2438
      2 C          64.1791   90.0747   13.1771 C.3     1  UNL1        0.1009
      3 C          65.2879   90.9903   13.6038 C.3     1  UNL1        0.0662
      4 C          65.7082   92.1238   12.7158 C.3     1  UNL1        0.1600
      5 O          65.0196   92.3417   11.4011 O.3     1  UNL1       -0.4374
      6 C          63.9107   91.4261   10.9744 C.2     1  UNL1        0.4051
      7 O          63.2221   91.6439    9.6598 O.2     1  UNL1       -0.2262
      8 C          66.6572   92.3238   13.8601 C.ar    1  UNL1        0.0138
      9 C          66.1320   92.7067   15.2119 C.ar    1  UNL1       -0.0010
     10 C          67.0810   92.9066   16.3562 C.ar    1  UNL1       -0.0002
     11 C          68.5552   92.7236   16.1486 C.ar    1  UNL1       -0.0000
     12 C          69.0805   92.3406   14.7968 C.ar    1  UNL1       -0.0002
     13 C          68.1314   92.1407   13.6525 C.ar    1  UNL1       -0.0010
     14 C          61.2065   89.9232   10.6806 C.3     1  UNL1        0.0265
     15 C          62.3817   89.3768   11.4358 C.3     1  UNL1        0.1011
     16 C          62.4481   87.9147   11.7643 C.ar    1  UNL1       -0.0042
     17 C          63.3340   87.4352   12.8757 C.ar    1  UNL1       -0.0026
     18 C          63.4004   85.9732   13.2042 C.ar    1  UNL1        0.0013
     19 C          62.5808   84.9906   12.4214 C.ar    1  UNL1        0.0193
     20 C          61.6948   85.4701   11.3101 C.ar    1  UNL1        0.0013
     21 C          61.6284   86.9322   10.9815 C.ar    1  UNL1       -0.0026
     22 C          62.6472   83.5285   12.7500 C.ar    1  UNL1        0.1011
     23 C          62.6647   83.0816   14.1817 C.ar    1  UNL1        0.0258
     24 C          62.7311   81.6195   14.5103 C.ar    1  UNL1        0.0638
     25 C          62.7799   80.6043   13.4070 C.ar    1  UNL1        0.2764
     26 O          62.8463   79.1423   13.7355 O.2     1  UNL1       -0.2655
     27 N          62.7623   81.0513   11.9752 N.ar    1  UNL1       -0.2186
     28 N          62.6960   82.5134   11.6467 N.ar    1  UNL1       -0.1669
     29 C          62.8112   80.0362   10.8720 C.3     1  UNL1        0.1085
     30 C          62.8375   78.6050   10.4239 C.3     1  UNL1        0.0265
     31 C          62.8694   79.7092    9.4093 C.3     1  UNL1        0.0265
     32 C          66.4580   93.3268   12.2252 C.3     1  UNL1        0.0714
     33 C          66.4774   93.6529   10.7612 C.3     1  UNL1        0.0922
     34 C          65.6801   94.8953   11.0274 C.3     1  UNL1        0.0294
     35 C          67.2747   92.4106   10.4951 C.3     1  UNL1        0.0294
     36 O          66.4968   93.9790    9.2973 O.3     1  UNL1       -0.3866
     37 H          66.0148   94.8068    9.1440 H       1  UNL1        0.2102
@<TRIPOS>BOND
     1    15    14    1
     2    15    16    1
     3    16    17   ar
     4    17    18   ar
     5    18    19   ar
     6    19    22    1
     7    22    23   ar
     8    23    24   ar
     9    24    25   ar
    10    25    26    2
    11    25    27   ar
    12    27    29    1
    13    29    30    1
    14    30    31    1
    15    27    28   ar
    16    19    20   ar
    17    20    21   ar
    18    15     1    1
    19     1     2    1
    20     2     3    1
    21     3     4    1
    22     4    32    1
    23    32    33    1
    24    33    34    1
    25    33    35    1
    26    33    36    1
    27     4     8    1
    28     8     9   ar
    29     9    10   ar
    30    10    11   ar
    31    11    12   ar
    32    12    13   ar
    33     4     5    1
    34     5     6    1
    35     6     7    2
    36    21    16   ar
    37     6     1   am
    38    28    22   ar
    39    13     8   ar
    40    31    29    1
    41    36    37    1
@<TRIPOS>MOLECULE
*****
 37 41 0 0 0
SMALL
GASTEIGER

@<TRIPOS>ATOM
      1 N          63.5943   90.8220   11.9460 N.am    1  UNL1       -0.2438
      2 C          64.3066   90.6624   13.2564 C.3     1  UNL1        0.1009
      3 C          65.5195   91.4923   13.5567 C.3     1  UNL1        0.0662
      4 C          66.0201   92.4817   12.5466 C.3     1  UNL1        0.1600
      5 O          65.3079   92.6413   11.2361 O.3     1  UNL1       -0.4374
      6 C          64.0950   91.8114   10.9358 C.2     1  UNL1        0.4051
      7 O          63.3827   91.9710    9.6254 O.2     1  UNL1       -0.2262
      8 C          67.0278   92.6910   13.6379 C.ar    1  UNL1        0.0138
      9 C          66.7309   93.6400   14.7609 C.ar    1  UNL1       -0.0010
     10 C          67.7386   93.8494   15.8522 C.ar    1  UNL1       -0.0002
     11 C          69.0431   93.1096   15.8203 C.ar    1  UNL1       -0.0000
     12 C          69.3400   92.1606   14.6972 C.ar    1  UNL1       -0.0002
     13 C          68.3323   91.9513   13.6060 C.ar    1  UNL1       -0.0010
     14 C          61.0524   90.6549   11.4355 C.3     1  UNL1        0.0265
     15 C          62.3814   89.9921   11.6457 C.3     1  UNL1        0.1011
     16 C          62.4977   88.4993   11.5555 C.ar    1  UNL1       -0.0042
     17 C          63.1134   87.7254   12.6833 C.ar    1  UNL1       -0.0026
     18 C          63.2296   86.2327   12.5931 C.ar    1  UNL1        0.0013
     19 C          62.7300   85.5138   11.3750 C.ar    1  UNL1        0.0193
     20 C          62.1142   86.2876   10.2472 C.ar    1  UNL1        0.0013
     21 C          61.9981   87.7803   10.3375 C.ar    1  UNL1       -0.0026
     22 C          62.8462   84.0210   11.2848 C.ar    1  UNL1        0.1011
     23 C          63.5851   83.3940   10.1399 C.ar    1  UNL1        0.0258
     24 C          63.7013   81.9012   10.0497 C.ar    1  UNL1        0.0638
     25 C          63.0786   81.0354   11.1045 C.ar    1  UNL1        0.2764
     26 O          63.1948   79.5426   11.0144 O.2     1  UNL1       -0.2655
     27 N          62.3397   81.6624   12.2495 N.ar    1  UNL1       -0.2186
     28 N          62.2235   83.1552   12.3397 N.ar    1  UNL1       -0.1669
     29 C          61.7170   80.7966   13.3044 C.3     1  UNL1        0.1085
     30 C          61.7896   79.6132   14.2231 C.3     1  UNL1        0.0265
     31 C          60.5658   80.4805   14.2125 C.3     1  UNL1        0.0265
     32 C          66.8708   93.5439   11.9154 C.3     1  UNL1        0.0714
     33 C          66.6982   93.8785   10.4635 C.3     1  UNL1        0.0922
     34 C          65.8618   95.0665   10.8367 C.3     1  UNL1        0.0294
     35 C          67.5345   92.6906   10.0903 C.3     1  UNL1        0.0294
     36 O          66.5255   94.2132    9.0116 O.3     1  UNL1       -0.3866
     37 H          65.9784   95.0097    8.9262 H       1  UNL1        0.2102
@<TRIPOS>BOND
     1    15    14    1
     2    15    16    1
     3    16    17   ar
     4    17    18   ar
     5    18    19   ar
     6    19    22    1
     7    22    23   ar
     8    23    24   ar
     9    24    25   ar
    10    25    26    2
    11    25    27   ar
    12    27    29    1
    13    29    30    1
    14    30    31    1
    15    27    28   ar
    16    19    20   ar
    17    20    21   ar
    18    15     1    1
    19     1     2    1
    20     2     3    1
    21     3     4    1
    22     4    32    1
    23    32    33    1
    24    33    34    1
    25    33    35    1
    26    33    36    1
    27     4     8    1
    28     8     9   ar
    29     9    10   ar
    30    10    11   ar
    31    11    12   ar
    32    12    13   ar
    33     4     5    1
    34     5     6    1
    35     6     7    2
    36    21    16   ar
    37     6     1   am
    38    28    22   ar
    39    13     8   ar
    40    31    29    1
    41    36    37    1
