@<TRIPOS>MOLECULE
*****
 62 68 0 0 0
SMALL
GASTEIGER

@<TRIPOS>ATOM
      1 C          60.4576   91.0138    5.4266 C.ar    1  UNL1        0.0000
      2 C          61.6247   91.0957    4.4879 C.ar    1  UNL1        0.0000
      3 C          61.4426   91.6659    3.1125 C.ar    1  UNL1        0.0005
      4 C          60.0932   92.1542    2.6758 C.ar    1  UNL1        0.0059
      5 C          58.9261   92.0723    3.6144 C.ar    1  UNL1        0.0005
      6 C          59.1082   91.5021    4.9899 C.ar    1  UNL1        0.0000
      7 C          59.9110   92.7244    1.3004 C.2     1  UNL1        0.0330
      8 C          59.5455   94.1423    0.9751 C.2     1  UNL1        0.0537
      9 C          59.4709   94.2710   -0.5175 C.2     1  UNL1        0.2309
     10 N          59.1989   95.2268   -1.6410 N.2     1  UNL1       -0.0364
     11 C          59.3501   94.4792   -2.9326 C.2     1  UNL1        0.3653
     12 N          59.7156   93.0612   -2.6073 N.2     1  UNL1       -0.0462
     13 C          59.7902   92.9325   -1.1147 C.3     1  UNL1        0.3308
     14 S          60.0622   91.9767    0.0089 S.3     1  UNL1       -0.0538
     15 C          59.1679   95.0493   -4.3079 C.3     1  UNL1        0.1874
     16 C          60.2237   95.7311   -5.1268 C.3     1  UNL1        0.0344
     17 C          59.6062   96.1410   -6.4309 C.3     1  UNL1        0.0221
     18 C          60.3037   96.8540   -7.5512 C.3     1  UNL1        0.0018
     19 C          58.1687   95.7126   -6.4181 C.3     1  UNL1        0.0940
     20 N          57.8978   95.0380   -5.1060 N.am    1  UNL1       -0.2691
     21 C          56.5870   94.4544   -4.6687 C.2     1  UNL1        0.2440
     22 O          56.4664   93.8076   -3.3207 O.2     1  UNL1       -0.2731
     23 C          55.3969   94.5175   -5.5795 C.3     1  UNL1        0.1512
     24 N          55.2393   93.5092   -6.6788 N.am    1  UNL1       -0.2640
     25 C          55.3328   92.0439   -6.3717 C.2     1  UNL1        0.4021
     26 O          55.5839   91.5870   -4.9652 O.2     1  UNL1       -0.2264
     27 H          55.0746   93.8091   -7.6020 H       1  UNL1        0.1532
     28 O          55.1753   91.0357   -7.4711 O.3     1  UNL1       -0.4306
     29 C          54.1822   89.9204   -7.3292 C.3     1  UNL1        0.2573
     30 C          54.3641   95.5890   -5.3909 C.3     1  UNL1        0.0270
     31 C          53.6353   96.1455   -6.5780 C.3     1  UNL1        0.0022
     32 C          54.0603   96.1041   -4.0152 C.3     1  UNL1        0.0022
     33 C          61.0042   89.3031    9.5527 C.ar    1  UNL1        0.0172
     34 C          61.8631   90.4442    9.0941 C.ar    1  UNL1        0.0015
     35 C          61.6809   91.0144    7.7187 C.ar    1  UNL1        0.0000
     36 C          60.6398   90.4436    6.8020 C.ar    1  UNL1        0.0000
     37 C          59.7810   89.3025    7.2606 C.ar    1  UNL1        0.0000
     38 C          59.9632   88.7323    8.6359 C.ar    1  UNL1        0.0015
     39 C          62.0413   87.4417   12.7970 C.ar    1  UNL1        0.1353
     40 N          60.8924   88.2692   13.2922 N.ar    1  UNL1       -0.2279
     41 C          60.3640   89.0672   12.1371 C.ar    1  UNL1        0.1171
     42 C          61.1864   88.7329   10.9280 C.ar    1  UNL1        0.0769
     43 N          62.2231   87.7283   11.3358 N.ar    1  UNL1       -0.3394
     44 H          62.9033   87.3275   10.7477 H       1  UNL1        0.1671
     45 C          62.4575   84.2586   12.2108 C.2     1  UNL1        0.2439
     46 O          61.5776   84.9527   11.2138 O.2     1  UNL1       -0.2731
     47 N          63.0554   85.0310   13.3492 N.am    1  UNL1       -0.2730
     48 C          63.9495   84.4758   14.4180 C.3     1  UNL1        0.0938
     49 C          64.3108   85.5959   15.3480 C.3     1  UNL1        0.0220
     50 C          65.1888   85.4876   16.5594 C.3     1  UNL1        0.0018
     51 C          63.6400   86.8433   14.8539 C.3     1  UNL1        0.0293
     52 C          62.8641   86.4941   13.6186 C.3     1  UNL1        0.1319
     53 C          62.7395   82.7921   12.0695 C.3     1  UNL1        0.1512
     54 C          61.9455   80.9976   13.7722 C.2     1  UNL1        0.4021
     55 O          63.1893   81.2155   14.5818 O.2     1  UNL1       -0.2264
     56 N          61.7206   81.7860   12.5161 N.am    1  UNL1       -0.2640
     57 H          60.9042   81.6430   11.9847 H       1  UNL1        0.1532
     58 C          59.4639   80.3058   14.1089 C.3     1  UNL1        0.2573
     59 O          60.9265   79.9915   14.2188 O.3     1  UNL1       -0.4306
     60 C          64.0405   82.3318   11.4815 C.3     1  UNL1        0.0270
     61 C          64.3010   82.4990   10.0138 C.3     1  UNL1        0.0022
     62 C          65.0808   81.7044   12.3613 C.3     1  UNL1        0.0022
@<TRIPOS>BOND
     1    58    59    1
     2    59    54    1
     3    54    55    2
     4    54    56   am
     5    53    56    1
     6    53    45    1
     7    45    46    2
     8    45    47   am
     9    47    48    1
    10    48    49    1
    11    49    50    1
    12    49    51    1
    13    51    52    1
    14    52    39    1
    15    39    40   ar
    16    40    41   ar
    17    41    42   ar
    18    42    33    1
    19    33    34   ar
    20    34    35   ar
    21    35    36   ar
    22    36     1    1
    23     1     2   ar
    24     2     3   ar
    25     3     4   ar
    26     4     7    1
    27     7     8    2
    28     8     9    1
    29     9    10    2
    30    10    11    1
    31    15    11    1
    32    15    16    1
    33    16    17    1
    34    17    18    1
    35    17    19    1
    36    19    20    1
    37    20    21   am
    38    21    22    2
    39    21    23    1
    40    23    24    1
    41    24    25   am
    42    25    26    2
    43    25    28    1
    44    28    29    1
    45    23    30    1
    46    30    31    1
    47    30    32    1
    48    11    12    2
    49    12    13    1
    50    13    14    1
    51     4     5   ar
    52     5     6   ar
    53    36    37   ar
    54    37    38   ar
    55    42    43   ar
    56    53    60    1
    57    60    61    1
    58    60    62    1
    59    52    47    1
    60    43    39   ar
    61    38    33   ar
    62     6     1   ar
    63    14     7    1
    64    13     9    1
    65    20    15    1
    66    56    57    1
    67    24    27    1
    68    43    44    1
@<TRIPOS>MOLECULE
*****
 62 68 0 0 0
SMALL
GASTEIGER

@<TRIPOS>ATOM
      1 C          59.8238   91.4849    4.2132 C.ar    1  UNL1        0.0000
      2 C          61.2484   91.0987    4.4806 C.ar    1  UNL1        0.0000
      3 C          61.5799   90.2155    5.6468 C.ar    1  UNL1        0.0005
      4 C          60.4867   89.7183    6.5456 C.ar    1  UNL1        0.0059
      5 C          59.0622   90.1045    6.2782 C.ar    1  UNL1        0.0005
      6 C          58.7307   90.9877    5.1120 C.ar    1  UNL1        0.0000
      7 C          60.8181   88.8351    7.7118 C.2     1  UNL1        0.0330
      8 C          61.5203   89.2593    8.9676 C.2     1  UNL1        0.0537
      9 C          61.6416   88.0589    9.8589 C.2     1  UNL1        0.2309
     10 N          62.1506   87.5792   11.1858 N.2     1  UNL1       -0.0364
     11 C          61.8380   86.1166   11.3010 C.2     1  UNL1        0.3653
     12 N          61.1358   85.6924   10.0451 N.2     1  UNL1       -0.0462
     13 C          61.0145   86.8928    9.1539 C.3     1  UNL1        0.3308
     14 S          60.5055   87.3725    7.8269 S.3     1  UNL1       -0.0538
     15 C          62.1694   85.2334   12.4671 C.3     1  UNL1        0.1874
     16 C          61.9559   83.7503   12.5386 C.3     1  UNL1        0.0344
     17 C          62.4270   83.2784   13.8823 C.3     1  UNL1        0.0221
     18 C          62.3985   81.8636   14.3797 C.3     1  UNL1        0.0018
     19 C          62.9317   84.4698   14.6412 C.3     1  UNL1        0.0940
     20 N          62.7725   85.6780   13.7667 N.am    1  UNL1       -0.2691
     21 C          63.1500   87.0840   14.1281 C.2     1  UNL1        0.2440
     22 O          62.9308   88.1956   13.1451 O.2     1  UNL1       -0.2731
     23 C          63.7468   87.3783   15.4724 C.3     1  UNL1        0.1512
     24 N          64.4100   88.6997   15.7255 N.am    1  UNL1       -0.2640
     25 C          63.5845   89.9494   15.8089 C.2     1  UNL1        0.4021
     26 O          62.0959   89.8777   15.6390 O.2     1  UNL1       -0.2264
     27 H          65.3870   88.7467   15.8370 H       1  UNL1        0.1532
     28 O          64.2478   91.2708   16.0620 O.3     1  UNL1       -0.4306
     29 C          65.1523   91.8668   15.0244 C.3     1  UNL1        0.2573
     30 C          63.6803   86.3512   16.5636 C.3     1  UNL1        0.0270
     31 C          64.5321   85.1189   16.4867 C.3     1  UNL1        0.0022
     32 C          62.7620   86.5564   17.7318 C.3     1  UNL1        0.0022
     33 C          58.8297   94.1347    0.7147 C.ar    1  UNL1        0.0172
     34 C          57.8449   93.1019    1.1769 C.ar    1  UNL1        0.0015
     35 C          58.1763   92.2187    2.3431 C.ar    1  UNL1        0.0000
     36 C          59.4924   92.3681    3.0470 C.ar    1  UNL1        0.0000
     37 C          60.4772   93.4008    2.5848 C.ar    1  UNL1        0.0000
     38 C          60.1458   94.2841    1.4186 C.ar    1  UNL1        0.0015
     39 C          58.3389   95.9004   -2.7069 C.ar    1  UNL1        0.1353
     40 N          57.6377   96.8540   -1.7853 N.ar    1  UNL1       -0.2279
     41 C          57.7363   96.3086   -0.3915 C.ar    1  UNL1        0.1171
     42 C          58.4983   95.0179   -0.4515 C.ar    1  UNL1        0.0769
     43 N          58.8707   94.7657   -1.8825 N.ar    1  UNL1       -0.3394
     44 H          59.3756   93.9913   -2.2212 H       1  UNL1        0.1671
     45 C          55.9980   95.3951   -4.9238 C.2     1  UNL1        0.2439
     46 O          55.5589   95.1613   -3.5086 O.2     1  UNL1       -0.2731
     47 N          57.4069   95.8223   -5.2110 N.am    1  UNL1       -0.2730
     48 C          57.9872   96.0922   -6.5676 C.3     1  UNL1        0.0938
     49 C          59.4218   96.4913   -6.3870 C.3     1  UNL1        0.0220
     50 C          60.3816   96.8506   -7.4824 C.3     1  UNL1        0.0018
     51 C          59.7281   96.4680   -4.9188 C.3     1  UNL1        0.0293
     52 C          58.4829   96.0545   -4.1920 C.3     1  UNL1        0.1319
     53 C          55.0283   95.2016   -6.0516 C.3     1  UNL1        0.1512
     54 C          55.7595   92.7632   -6.5711 C.2     1  UNL1        0.4021
     55 O          56.0761   92.5492   -5.1206 O.2     1  UNL1       -0.2264
     56 N          55.2356   94.0894   -7.0366 N.am    1  UNL1       -0.2640
     57 H          55.0278   94.2299   -7.9886 H       1  UNL1        0.1532
     58 C          57.1433   90.7317   -7.4125 C.3     1  UNL1        0.2573
     59 O          55.9668   91.6512   -7.5560 O.3     1  UNL1       -0.4306
     60 C          53.8512   96.1203   -6.1945 C.3     1  UNL1        0.0270
     61 C          53.2937   96.4189   -7.5547 C.3     1  UNL1        0.0022
     62 C          53.2316   96.7404   -4.9774 C.3     1  UNL1        0.0022
@<TRIPOS>BOND
     1    58    59    1
     2    59    54    1
     3    54    55    2
     4    54    56   am
     5    53    56    1
     6    53    45    1
     7    45    46    2
     8    45    47   am
     9    47    48    1
    10    48    49    1
    11    49    50    1
    12    49    51    1
    13    51    52    1
    14    52    39    1
    15    39    40   ar
    16    40    41   ar
    17    41    42   ar
    18    42    33    1
    19    33    34   ar
    20    34    35   ar
    21    35    36   ar
    22    36     1    1
    23     1     2   ar
    24     2     3   ar
    25     3     4   ar
    26     4     7    1
    27     7     8    2
    28     8     9    1
    29     9    10    2
    30    10    11    1
    31    15    11    1
    32    15    16    1
    33    16    17    1
    34    17    18    1
    35    17    19    1
    36    19    20    1
    37    20    21   am
    38    21    22    2
    39    21    23    1
    40    23    24    1
    41    24    25   am
    42    25    26    2
    43    25    28    1
    44    28    29    1
    45    23    30    1
    46    30    31    1
    47    30    32    1
    48    11    12    2
    49    12    13    1
    50    13    14    1
    51     4     5   ar
    52     5     6   ar
    53    36    37   ar
    54    37    38   ar
    55    42    43   ar
    56    53    60    1
    57    60    61    1
    58    60    62    1
    59    52    47    1
    60    43    39   ar
    61    38    33   ar
    62     6     1   ar
    63    14     7    1
    64    13     9    1
    65    20    15    1
    66    56    57    1
    67    24    27    1
    68    43    44    1
@<TRIPOS>MOLECULE
*****
 62 68 0 0 0
SMALL
GASTEIGER

@<TRIPOS>ATOM
      1 C          59.8188   91.6597    4.3671 C.ar    1  UNL1        0.0000
      2 C          58.7260   91.1281    5.2463 C.ar    1  UNL1        0.0000
      3 C          59.0693   90.3603    6.4884 C.ar    1  UNL1        0.0005
      4 C          60.5055   90.1243    6.8512 C.ar    1  UNL1        0.0059
      5 C          61.5983   90.6559    5.9720 C.ar    1  UNL1        0.0005
      6 C          61.2550   91.4237    4.7299 C.ar    1  UNL1        0.0000
      7 C          60.8489   89.3565    8.0932 C.2     1  UNL1        0.0330
      8 C          60.5456   87.9097    8.3476 C.2     1  UNL1        0.0537
      9 C          61.0651   87.5599    9.7105 C.2     1  UNL1        0.2309
     10 N          61.1988   86.4495   10.7101 N.2     1  UNL1       -0.0364
     11 C          61.9058   86.9937   11.9159 C.2     1  UNL1        0.3653
     12 N          62.2091   88.4406   11.6615 N.2     1  UNL1       -0.0462
     13 C          61.6895   88.7905   10.2986 C.3     1  UNL1        0.3308
     14 S          61.5559   89.9009    9.2990 S.3     1  UNL1       -0.0538
     15 C          62.2492   86.2261   13.1579 C.3     1  UNL1        0.1874
     16 C          62.4092   86.8013   14.5340 C.3     1  UNL1        0.0344
     17 C          62.7518   85.6791   15.4685 C.3     1  UNL1        0.0221
     18 C          62.9992   85.8037   16.9427 C.3     1  UNL1        0.0018
     19 C          62.8035   84.4103   14.6701 C.3     1  UNL1        0.0940
     20 N          62.4929   84.7484   13.2420 N.am    1  UNL1       -0.2691
     21 C          62.4359   83.7790   12.0988 C.2     1  UNL1        0.2440
     22 O          62.1107   84.2661   10.7178 O.2     1  UNL1       -0.2731
     23 C          62.7041   82.3224   12.3365 C.3     1  UNL1        0.1512
     24 N          61.5666   81.3873   12.6223 N.am    1  UNL1       -0.2640
     25 C          61.1503   81.1236   14.0391 C.2     1  UNL1        0.4021
     26 O          61.8714   81.7952   15.1700 O.2     1  UNL1       -0.2264
     27 H          61.0934   80.9465   11.8800 H       1  UNL1        0.1532
     28 O          60.0128   80.1885   14.3248 O.3     1  UNL1       -0.4306
     29 C          58.5988   80.6384   14.1051 C.3     1  UNL1        0.2573
     30 C          64.1098   81.8010   12.2884 C.3     1  UNL1        0.0270
     31 C          65.0190   82.1981   11.1634 C.3     1  UNL1        0.0022
     32 C          64.6063   80.8825   13.3654 C.3     1  UNL1        0.0022
     33 C          58.7888   93.9630    0.6410 C.ar    1  UNL1        0.0172
     34 C          57.8902   92.8582    1.1122 C.ar    1  UNL1        0.0015
     35 C          58.2336   92.0904    2.3542 C.ar    1  UNL1        0.0000
     36 C          59.4754   92.4275    3.1250 C.ar    1  UNL1        0.0000
     37 C          60.3740   93.5322    2.6538 C.ar    1  UNL1        0.0000
     38 C          60.0306   94.3000    1.4118 C.ar    1  UNL1        0.0015
     39 C          58.3891   95.4840   -2.9076 C.ar    1  UNL1        0.1353
     40 N          57.4448   96.3404   -2.1171 N.ar    1  UNL1       -0.2279
     41 C          57.4796   95.8748   -0.6916 C.ar    1  UNL1        0.1171
     42 C          58.4454   94.7307   -0.6011 C.ar    1  UNL1        0.0769
     43 N          59.0075   94.4891   -1.9706 N.ar    1  UNL1       -0.3394
     44 H          59.6666   93.7988   -2.2121 H       1  UNL1        0.1671
     45 C          56.6554   94.1042   -5.3034 C.2     1  UNL1        0.2439
     46 O          56.1375   93.8082   -3.9270 O.2     1  UNL1       -0.2731
     47 N          57.8695   94.9676   -5.4783 N.am    1  UNL1       -0.2730
     48 C          58.4997   95.3482   -6.7851 C.3     1  UNL1        0.0938
     49 C          59.6862   96.2177   -6.4916 C.3     1  UNL1        0.0220
     50 C          60.6080   96.8242   -7.5079 C.3     1  UNL1        0.0018
     51 C          59.7892   96.3744   -5.0033 C.3     1  UNL1        0.0293
     52 C          58.6663   95.6017   -4.3771 C.3     1  UNL1        0.1319
     53 C          55.9591   93.5368   -6.5047 C.3     1  UNL1        0.1512
     54 C          54.1020   95.3420   -6.7102 C.2     1  UNL1        0.4021
     55 O          53.9791   95.3857   -5.2158 O.2     1  UNL1       -0.2264
     56 N          55.0919   94.4176   -7.3546 N.am    1  UNL1       -0.2640
     57 H          55.1725   94.3890   -8.3354 H       1  UNL1        0.1532
     58 C          51.7977   96.4419   -7.1903 C.3     1  UNL1        0.2573
     59 O          53.2348   96.2228   -7.5600 O.3     1  UNL1       -0.4306
     60 C          56.1301   92.0887   -6.8563 C.3     1  UNL1        0.0270
     61 C          55.0586   91.0998   -6.5039 C.3     1  UNL1        0.0022
     62 C          57.3724   91.6293   -7.5603 C.3     1  UNL1        0.0022
@<TRIPOS>BOND
     1    58    59    1
     2    59    54    1
     3    54    55    2
     4    54    56   am
     5    53    56    1
     6    53    45    1
     7    45    46    2
     8    45    47   am
     9    47    48    1
    10    48    49    1
    11    49    50    1
    12    49    51    1
    13    51    52    1
    14    52    39    1
    15    39    40   ar
    16    40    41   ar
    17    41    42   ar
    18    42    33    1
    19    33    34   ar
    20    34    35   ar
    21    35    36   ar
    22    36     1    1
    23     1     2   ar
    24     2     3   ar
    25     3     4   ar
    26     4     7    1
    27     7     8    2
    28     8     9    1
    29     9    10    2
    30    10    11    1
    31    15    11    1
    32    15    16    1
    33    16    17    1
    34    17    18    1
    35    17    19    1
    36    19    20    1
    37    20    21   am
    38    21    22    2
    39    21    23    1
    40    23    24    1
    41    24    25   am
    42    25    26    2
    43    25    28    1
    44    28    29    1
    45    23    30    1
    46    30    31    1
    47    30    32    1
    48    11    12    2
    49    12    13    1
    50    13    14    1
    51     4     5   ar
    52     5     6   ar
    53    36    37   ar
    54    37    38   ar
    55    42    43   ar
    56    53    60    1
    57    60    61    1
    58    60    62    1
    59    52    47    1
    60    43    39   ar
    61    38    33   ar
    62     6     1   ar
    63    14     7    1
    64    13     9    1
    65    20    15    1
    66    56    57    1
    67    24    27    1
    68    43    44    1
