@<TRIPOS>MOLECULE
*****
 39 44 0 0 0
SMALL
GASTEIGER

@<TRIPOS>ATOM
      1 C          63.5934   89.4213   13.3486 C.ar    1  UNL1        0.0447
      2 C          64.3925   89.5413   14.6123 C.ar    1  UNL1        0.0156
      3 C          64.8853   88.3071   15.3080 C.ar    1  UNL1        0.0159
      4 C          64.5789   86.9531   14.7400 C.ar    1  UNL1        0.0507
      5 C          63.7797   86.8331   13.4763 C.ar    1  UNL1        0.0193
      6 C          63.2870   88.0673   12.7806 C.ar    1  UNL1        0.0157
      7 C          63.6351   85.3749   13.1560 C.2     1  UNL1        0.0623
      8 C          62.9083   84.7991   11.9769 C.2     1  UNL1        0.0928
      9 C          64.3449   84.5936   14.2217 C.2     1  UNL1        0.2498
     10 O          64.4525   83.0992   14.2954 O.2     1  UNL1       -0.2698
     11 N          64.9282   85.5689   15.2007 N.am    1  UNL1       -0.2804
     12 H          65.4489   85.3407   16.0045 H       1  UNL1        0.1552
     13 C          62.8473   83.3125   11.7863 C.2     1  UNL1        0.3754
     14 N          62.4760   82.3039   12.8327 N.2     1  UNL1       -0.0308
     15 C          62.5462   80.9415   12.2089 C.2     1  UNL1        0.2321
     16 C          62.2861   79.5708   12.7597 C.2     1  UNL1        0.0498
     17 C          62.4407   78.3667   11.8787 C.2     1  UNL1       -0.0002
     18 C          62.8554   78.5333   10.4468 C.2     1  UNL1       -0.0172
     19 C          63.1156   79.9041    9.8960 C.3     1  UNL1        0.1037
     20 C          62.9610   81.1082   10.7770 C.2     1  UNL1        0.2178
     21 N          63.1471   82.5736   10.5158 N.2     1  UNL1       -0.0347
     22 C          62.2424   85.7098   10.9885 C.ar    1  UNL1        0.0078
     23 C          62.7371   85.7712    9.5737 C.ar    1  UNL1        0.0034
     24 C          62.0712   86.6819    8.5851 C.ar    1  UNL1        0.0369
     25 C          60.9106   87.5313    9.0113 C.ar    1  UNL1        0.1387
     26 C          60.4159   87.4699   10.4261 C.ar    1  UNL1        0.0369
     27 C          61.0818   86.5592   11.4147 C.ar    1  UNL1        0.0034
     28 O          60.2447   88.4420    8.0228 O.3     1  UNL1       -0.4714
     29 C          58.9409   88.0443    7.3968 C.3     1  UNL1        0.2525
     30 N          63.1006   90.6555   12.6529 N.pl3   1  UNL1       -0.3339
     31 H          62.1336   90.8120   12.5540 H       1  UNL1        0.1468
     32 N          66.0420   93.6427   11.0174 N.3     1  UNL1       -0.2726
     33 C          66.0667   93.2862   12.4741 C.3     1  UNL1        0.0738
     34 C          65.0862   92.2905   13.0194 C.3     1  UNL1        0.0368
     35 C          64.0810   91.6513   12.1077 C.3     1  UNL1        0.0718
     36 C          64.0564   92.0078   10.6509 C.3     1  UNL1        0.0368
     37 C          65.0368   93.0035   10.1057 C.3     1  UNL1        0.0738
     38 C          67.8460   94.2969    9.2659 C.3     1  UNL1        0.0188
     39 C          67.0224   94.6385   10.4722 C.3     1  UNL1        0.0721
@<TRIPOS>BOND
     1    38    39    1
     2    39    32    1
     3    32    33    1
     4    33    34    1
     5    34    35    1
     6    35    30    1
     7    30     1    1
     8     1     2   ar
     9     2     3   ar
    10     3     4   ar
    11     4     5   ar
    12     5     6   ar
    13     5     7    1
    14     7     8    2
    15     8    22    1
    16    22    23   ar
    17    23    24   ar
    18    24    25   ar
    19    25    28    1
    20    28    29    1
    21    25    26   ar
    22    26    27   ar
    23     8    13    1
    24    13    14    2
    25    14    15    1
    26    15    16    2
    27    16    17    1
    28    17    18    2
    29    18    19    1
    30    19    20    1
    31    20    21    2
    32     7     9    1
    33     9    10    2
    34     9    11   am
    35    35    36    1
    36    36    37    1
    37    37    32    1
    38     6     1   ar
    39    27    22   ar
    40    21    13    1
    41    11     4    1
    42    20    15    1
    43    30    31    1
    44    11    12    1
@<TRIPOS>MOLECULE
*****
 39 44 0 0 0
SMALL
GASTEIGER

@<TRIPOS>ATOM
      1 C          61.6635   88.7997   11.1230 C.ar    1  UNL1        0.0447
      2 C          61.4541   89.4778    9.8015 C.ar    1  UNL1        0.0156
      3 C          62.2789   90.6755    9.4341 C.ar    1  UNL1        0.0159
      4 C          63.3131   91.1953   10.3883 C.ar    1  UNL1        0.0507
      5 C          63.5224   90.5173   11.7098 C.ar    1  UNL1        0.0193
      6 C          62.6976   89.3195   12.0771 C.ar    1  UNL1        0.0157
      7 C          64.6078   91.2509   12.4403 C.2     1  UNL1        0.0623
      8 C          65.1386   90.9124   13.8018 C.2     1  UNL1        0.0928
      9 C          65.0693   92.3823   11.5703 C.2     1  UNL1        0.2498
     10 O          66.1426   93.3739   11.9091 O.2     1  UNL1       -0.2698
     11 N          64.2691   92.3480   10.3020 N.am    1  UNL1       -0.2804
     12 H          64.3561   92.9723    9.5458 H       1  UNL1        0.1552
     13 C          66.2319   91.7414   14.4080 C.2     1  UNL1        0.3754
     14 N          67.5429   91.2288   14.9261 N.2     1  UNL1       -0.0308
     15 C          68.3275   92.3992   15.4408 C.2     1  UNL1        0.2321
     16 C          69.6874   92.4991   16.0658 C.2     1  UNL1        0.0498
     17 C          70.2212   93.8350   16.4907 C.2     1  UNL1       -0.0002
     18 C          69.3950   95.0709   16.2906 C.2     1  UNL1       -0.0172
     19 C          68.0350   94.9709   15.6656 C.3     1  UNL1        0.1037
     20 C          67.5012   93.6350   15.2407 C.2     1  UNL1        0.2178
     21 N          66.2061   93.2285   14.6024 N.2     1  UNL1       -0.0347
     22 C          64.5760   89.7451   14.5573 C.ar    1  UNL1        0.0078
     23 C          64.9614   88.3471   14.1733 C.ar    1  UNL1        0.0034
     24 C          64.3989   87.1797   14.9287 C.ar    1  UNL1        0.0369
     25 C          63.4510   87.4101   16.0681 C.ar    1  UNL1        0.1387
     26 C          63.0655   88.8079   16.4521 C.ar    1  UNL1        0.0369
     27 C          63.6281   89.9755   15.6967 C.ar    1  UNL1        0.0034
     28 O          62.8884   86.2427   16.8236 O.3     1  UNL1       -0.4714
     29 C          62.6354   86.3551   18.2978 C.3     1  UNL1        0.2525
     30 N          60.8386   87.6019   11.4904 N.pl3   1  UNL1       -0.3339
     31 H          59.8869   87.7106   11.7178 H       1  UNL1        0.1468
     32 N          62.7143   83.5119   11.5533 N.3     1  UNL1       -0.2726
     33 C          62.2993   84.1267   10.2496 C.3     1  UNL1        0.0738
     34 C          61.6741   85.4901   10.2286 C.3     1  UNL1        0.0368
     35 C          61.4638   86.2386   11.5114 C.3     1  UNL1        0.0718
     36 C          61.8788   85.6237   12.8152 C.3     1  UNL1        0.0368
     37 C          62.5040   84.2604   12.8361 C.3     1  UNL1        0.0738
     38 C          62.7385   81.0607   12.4141 C.3     1  UNL1        0.0188
     39 C          63.3395   82.1486   11.5742 C.3     1  UNL1        0.0721
@<TRIPOS>BOND
     1    38    39    1
     2    39    32    1
     3    32    33    1
     4    33    34    1
     5    34    35    1
     6    35    30    1
     7    30     1    1
     8     1     2   ar
     9     2     3   ar
    10     3     4   ar
    11     4     5   ar
    12     5     6   ar
    13     5     7    1
    14     7     8    2
    15     8    22    1
    16    22    23   ar
    17    23    24   ar
    18    24    25   ar
    19    25    28    1
    20    28    29    1
    21    25    26   ar
    22    26    27   ar
    23     8    13    1
    24    13    14    2
    25    14    15    1
    26    15    16    2
    27    16    17    1
    28    17    18    2
    29    18    19    1
    30    19    20    1
    31    20    21    2
    32     7     9    1
    33     9    10    2
    34     9    11   am
    35    35    36    1
    36    36    37    1
    37    37    32    1
    38     6     1   ar
    39    27    22   ar
    40    21    13    1
    41    11     4    1
    42    20    15    1
    43    30    31    1
    44    11    12    1
@<TRIPOS>MOLECULE
*****
 39 44 0 0 0
SMALL
GASTEIGER

@<TRIPOS>ATOM
      1 C          62.6687   89.6120   12.6405 C.ar    1  UNL1        0.0447
      2 C          62.4341   90.2959   11.3263 C.ar    1  UNL1        0.0156
      3 C          62.2805   89.4833   10.0749 C.ar    1  UNL1        0.0159
      4 C          62.3617   87.9868   10.1377 C.ar    1  UNL1        0.0507
      5 C          62.5963   87.3029   11.4519 C.ar    1  UNL1        0.0193
      6 C          62.7498   88.1155   12.7033 C.ar    1  UNL1        0.0157
      7 C          62.6291   85.8237   11.2053 C.2     1  UNL1        0.0623
      8 C          62.8393   84.7613   12.2431 C.2     1  UNL1        0.0928
      9 C          62.4146   85.5933    9.7386 C.2     1  UNL1        0.2498
     10 O          62.3728   84.2601    9.0523 O.2     1  UNL1       -0.2698
     11 N          62.2494   86.9302    9.0788 N.am    1  UNL1       -0.2804
     12 H          62.0944   87.0867    8.1192 H       1  UNL1        0.1552
     13 C          62.8472   83.3151   11.8451 C.2     1  UNL1        0.3754
     14 N          63.2327   82.7727   10.5007 N.2     1  UNL1       -0.0308
     15 C          63.0947   81.2797   10.5464 C.2     1  UNL1        0.2321
     16 C          63.3369   80.2174    9.5154 C.2     1  UNL1        0.0498
     17 C          63.1084   78.7748    9.8570 C.2     1  UNL1       -0.0002
     18 C          62.6377   78.3945   11.2295 C.2     1  UNL1       -0.0172
     19 C          62.3956   79.4569   12.2605 C.3     1  UNL1        0.1037
     20 C          62.6240   80.8994   11.9190 C.2     1  UNL1        0.2178
     21 N          62.4711   82.1574   12.7216 N.2     1  UNL1       -0.0347
     22 C          63.0417   85.1450   13.6790 C.ar    1  UNL1        0.0078
     23 C          64.2750   85.8943   14.0884 C.ar    1  UNL1        0.0034
     24 C          64.4775   86.2781   15.5243 C.ar    1  UNL1        0.0369
     25 C          63.4466   85.9126   16.5508 C.ar    1  UNL1        0.1387
     26 C          62.2132   85.1634   16.1414 C.ar    1  UNL1        0.0369
     27 C          62.0108   84.7796   14.7055 C.ar    1  UNL1        0.0034
     28 O          63.6489   86.2964   17.9866 O.3     1  UNL1       -0.4714
     29 C          62.5651   87.0200   18.7294 C.3     1  UNL1        0.2525
     30 N          62.8223   90.4245   13.8920 N.pl3   1  UNL1       -0.3339
     31 H          62.0781   90.4857   14.5336 H       1  UNL1        0.1468
     32 N          66.6844   92.5828   14.7137 N.3     1  UNL1       -0.2726
     33 C          66.2746   92.2905   13.3007 C.3     1  UNL1        0.0738
     34 C          64.9872   91.5710   13.0268 C.3     1  UNL1        0.0368
     35 C          64.1096   91.1440   14.1659 C.3     1  UNL1        0.0718
     36 C          64.5195   91.4364   15.5789 C.3     1  UNL1        0.0368
     37 C          65.8069   92.1558   15.8528 C.3     1  UNL1        0.0738
     38 C          68.8861   92.8167   16.0732 C.3     1  UNL1        0.0188
     39 C          67.9718   93.3022   14.9876 C.3     1  UNL1        0.0721
@<TRIPOS>BOND
     1    38    39    1
     2    39    32    1
     3    32    33    1
     4    33    34    1
     5    34    35    1
     6    35    30    1
     7    30     1    1
     8     1     2   ar
     9     2     3   ar
    10     3     4   ar
    11     4     5   ar
    12     5     6   ar
    13     5     7    1
    14     7     8    2
    15     8    22    1
    16    22    23   ar
    17    23    24   ar
    18    24    25   ar
    19    25    28    1
    20    28    29    1
    21    25    26   ar
    22    26    27   ar
    23     8    13    1
    24    13    14    2
    25    14    15    1
    26    15    16    2
    27    16    17    1
    28    17    18    2
    29    18    19    1
    30    19    20    1
    31    20    21    2
    32     7     9    1
    33     9    10    2
    34     9    11   am
    35    35    36    1
    36    36    37    1
    37    37    32    1
    38     6     1   ar
    39    27    22   ar
    40    21    13    1
    41    11     4    1
    42    20    15    1
    43    30    31    1
    44    11    12    1
