@<TRIPOS>MOLECULE
*****
 30 33 0 0 0
SMALL
GASTEIGER

@<TRIPOS>ATOM
      1 C          61.8016   86.9023   10.7065 C.ar    1  UNL1        0.1105
      2 C          62.2586   88.3270   10.8130 C.ar    1  UNL1        0.0200
      3 C          61.7119   89.3621    9.8751 C.ar    1  UNL1        0.0160
      4 C          60.7082   88.9724    8.8307 C.ar    1  UNL1        0.0504
      5 C          60.2512   87.5477    8.7242 C.ar    1  UNL1        0.0160
      6 C          60.7979   86.5127    9.6621 C.ar    1  UNL1        0.0200
      7 N          60.1615   90.0075    7.8927 N.am    1  UNL1       -0.2839
      8 C          59.5147   89.5871    6.6063 C.2     1  UNL1        0.2260
      9 O          59.4146   88.1316    6.2578 O.2     1  UNL1       -0.2748
     10 H          60.2272   90.9628    8.1214 H       1  UNL1        0.1549
     11 C          58.9680   90.6223    5.6683 C.3     1  UNL1        0.0812
     12 C          57.8199   91.4531    5.1770 C.3     1  UNL1        0.0143
     13 C          59.1693   91.5842    4.5351 C.3     1  UNL1        0.0330
     14 C          60.0645   92.2153    3.5104 C.ar    1  UNL1       -0.0029
     15 C          61.5432   91.9665    3.5511 C.ar    1  UNL1       -0.0011
     16 C          62.4384   92.5976    2.5263 C.ar    1  UNL1        0.0204
     17 C          61.8550   93.4776    1.4607 C.ar    1  UNL1        0.0989
     18 N          60.3764   93.7264    1.4200 N.ar    1  UNL1       -0.2426
     19 C          59.4811   93.0952    2.4449 C.ar    1  UNL1        0.0946
     20 S          62.3483   85.8672   11.6445 S.O2    1  UNL1        0.0305
     21 O          61.7106   84.7861   10.8232 O.2     1  UNL1       -0.1641
     22 O          62.9859   86.9483   12.4658 O.2     1  UNL1       -0.1641
     23 N          63.4758   82.6965   13.5786 N.ar    1  UNL1       -0.2481
     24 C          62.7949   83.3454   12.4102 C.ar    1  UNL1        0.1154
     25 C          62.8950   84.8322   12.5825 C.ar    1  UNL1        0.1497
     26 C          63.6377   85.1021   13.8574 C.ar    1  UNL1        0.1404
     27 N          63.9967   83.7823   14.4731 N.ar    1  UNL1       -0.1662
     28 C          63.6120   81.2210   13.8117 C.3     1  UNL1        0.1276
     29 C          61.0732   80.7278   14.0591 C.3     1  UNL1        0.0021
     30 C          62.4370   80.3152   13.5905 C.3     1  UNL1        0.0264
@<TRIPOS>BOND
     1    29    30    1
     2    30    28    1
     3    28    23    1
     4    23    24   ar
     5    24    25   ar
     6    25    20    1
     7    20    21    2
     8    20    22    2
     9    20     1    1
    10     1     2   ar
    11     2     3   ar
    12     3     4   ar
    13     4     7    1
    14     7     8   am
    15     8     9    2
    16    11     8    1
    17    11    12    1
    18    12    13    1
    19    13    14    1
    20    14    15   ar
    21    15    16   ar
    22    16    17   ar
    23    17    18   ar
    24    18    19   ar
    25     4     5   ar
    26     5     6   ar
    27    25    26   ar
    28    26    27   ar
    29    27    23   ar
    30     6     1   ar
    31    13    11    1
    32    19    14   ar
    33     7    10    1
@<TRIPOS>MOLECULE
*****
 30 33 0 0 0
SMALL
GASTEIGER

@<TRIPOS>ATOM
      1 C          61.0451   86.7884    9.6586 C.ar    1  UNL1        0.1105
      2 C          60.3672   86.1942    8.4598 C.ar    1  UNL1        0.0200
      3 C          59.6537   87.0829    7.4845 C.ar    1  UNL1        0.0160
      4 C          59.6181   88.5657    7.7082 C.ar    1  UNL1        0.0504
      5 C          60.2960   89.1598    8.9071 C.ar    1  UNL1        0.0160
      6 C          61.0095   88.2712    9.8823 C.ar    1  UNL1        0.0200
      7 N          58.9045   89.4544    6.7329 N.am    1  UNL1       -0.2839
      8 C          59.6864   90.3933    5.8629 C.2     1  UNL1        0.2260
      9 O          61.1819   90.4437    5.9681 O.2     1  UNL1       -0.2748
     10 H          57.9230   89.4214    6.6638 H       1  UNL1        0.1549
     11 C          58.9728   91.2820    4.8875 C.3     1  UNL1        0.0812
     12 C          57.7161   91.9571    4.4243 C.3     1  UNL1        0.0143
     13 C          58.9937   92.1461    3.6616 C.3     1  UNL1        0.0330
     14 C          59.7435   92.7540    2.5135 C.ar    1  UNL1       -0.0029
     15 C          61.2268   92.9556    2.6090 C.ar    1  UNL1       -0.0011
     16 C          61.9766   93.5636    1.4609 C.ar    1  UNL1        0.0204
     17 C          61.2431   93.9699    0.2172 C.ar    1  UNL1        0.0989
     18 N          59.7597   93.7683    0.1216 N.ar    1  UNL1       -0.2426
     19 C          59.0100   93.1604    1.2698 C.ar    1  UNL1        0.0946
     20 S          61.7586   85.8997   10.6340 S.O2    1  UNL1        0.0305
     21 O          62.4475   85.2049    9.4970 O.2     1  UNL1       -0.1641
     22 O          61.0698   86.5945   11.7709 O.2     1  UNL1       -0.1641
     23 N          63.4056   83.0468   12.6867 N.ar    1  UNL1       -0.2481
     24 C          62.6253   83.5231   11.4975 C.ar    1  UNL1        0.1154
     25 C          62.4721   85.0111   11.6093 C.ar    1  UNL1        0.1497
     26 C          63.1577   85.4544   12.8676 C.ar    1  UNL1        0.1404
     27 N          63.7346   84.2405   13.5335 N.ar    1  UNL1       -0.1662
     28 C          63.7894   81.6263   12.9781 C.3     1  UNL1        0.1276
     29 C          61.4944   81.2000   14.1188 C.3     1  UNL1        0.0021
     30 C          62.7742   80.6750   13.5388 C.3     1  UNL1        0.0264
@<TRIPOS>BOND
     1    29    30    1
     2    30    28    1
     3    28    23    1
     4    23    24   ar
     5    24    25   ar
     6    25    20    1
     7    20    21    2
     8    20    22    2
     9    20     1    1
    10     1     2   ar
    11     2     3   ar
    12     3     4   ar
    13     4     7    1
    14     7     8   am
    15     8     9    2
    16    11     8    1
    17    11    12    1
    18    12    13    1
    19    13    14    1
    20    14    15   ar
    21    15    16   ar
    22    16    17   ar
    23    17    18   ar
    24    18    19   ar
    25     4     5   ar
    26     5     6   ar
    27    25    26   ar
    28    26    27   ar
    29    27    23   ar
    30     6     1   ar
    31    13    11    1
    32    19    14   ar
    33     7    10    1
@<TRIPOS>MOLECULE
*****
 30 33 0 0 0
SMALL
GASTEIGER

@<TRIPOS>ATOM
      1 C          63.8648   87.7245   13.6609 C.ar    1  UNL1        0.1105
      2 C          63.2941   88.3648   12.4304 C.ar    1  UNL1        0.0200
      3 C          63.5266   89.8231   12.1673 C.ar    1  UNL1        0.0160
      4 C          64.3297   90.6411   13.1347 C.ar    1  UNL1        0.0504
      5 C          64.9004   90.0008   14.3653 C.ar    1  UNL1        0.0160
      6 C          64.6680   88.5425   14.6284 C.ar    1  UNL1        0.0200
      7 N          64.5621   92.0995   12.8716 N.am    1  UNL1       -0.2839
      8 C          65.9616   92.6327   12.7871 C.2     1  UNL1        0.2260
      9 O          67.1287   91.7075   12.9657 O.2     1  UNL1       -0.2748
     10 H          63.7961   92.7067   12.7543 H       1  UNL1        0.1549
     11 C          66.1940   94.0910   12.5239 C.3     1  UNL1        0.0812
     12 C          66.5145   95.4670   13.0278 C.3     1  UNL1        0.0143
     13 C          66.2760   95.2410   11.5643 C.3     1  UNL1        0.0330
     14 C          66.1857   95.7743   10.1652 C.ar    1  UNL1       -0.0029
     15 C          67.3948   95.7600    9.2776 C.ar    1  UNL1       -0.0011
     16 C          67.3045   96.2934    7.8785 C.ar    1  UNL1        0.0204
     17 C          66.0050   96.8411    7.3671 C.ar    1  UNL1        0.0989
     18 N          64.7959   96.8555    8.2548 N.ar    1  UNL1       -0.2426
     19 C          64.8863   96.3221    9.6539 C.ar    1  UNL1        0.0946
     20 S          63.6324   86.2661   13.9241 S.O2    1  UNL1        0.0305
     21 O          64.5206   86.3422   15.1304 O.2     1  UNL1       -0.1641
     22 O          62.7442   86.1901   12.7178 O.2     1  UNL1       -0.1641
     23 N          63.2366   82.4052   13.8852 N.ar    1  UNL1       -0.2481
     24 C          63.5778   83.6942   13.1982 C.ar    1  UNL1        0.1154
     25 C          63.4000   84.8078   14.1872 C.ar    1  UNL1        0.1497
     26 C          62.9490   84.2071   15.4855 C.ar    1  UNL1        0.1404
     27 N          62.8480   82.7222   15.2990 N.ar    1  UNL1       -0.1662
     28 C          63.2770   81.0390   13.2672 C.3     1  UNL1        0.1276
     29 C          60.8094   80.4837   13.8611 C.3     1  UNL1        0.0021
     30 C          62.2164   80.0326   13.6022 C.3     1  UNL1        0.0264
@<TRIPOS>BOND
     1    29    30    1
     2    30    28    1
     3    28    23    1
     4    23    24   ar
     5    24    25   ar
     6    25    20    1
     7    20    21    2
     8    20    22    2
     9    20     1    1
    10     1     2   ar
    11     2     3   ar
    12     3     4   ar
    13     4     7    1
    14     7     8   am
    15     8     9    2
    16    11     8    1
    17    11    12    1
    18    12    13    1
    19    13    14    1
    20    14    15   ar
    21    15    16   ar
    22    16    17   ar
    23    17    18   ar
    24    18    19   ar
    25     4     5   ar
    26     5     6   ar
    27    25    26   ar
    28    26    27   ar
    29    27    23   ar
    30     6     1   ar
    31    13    11    1
    32    19    14   ar
    33     7    10    1
@<TRIPOS>MOLECULE
*****
 30 33 0 0 0
SMALL
GASTEIGER

@<TRIPOS>ATOM
      1 C          61.0402   86.8261    9.5628 C.ar    1  UNL1        0.1105
      2 C          60.3303   86.2582    8.3697 C.ar    1  UNL1        0.0200
      3 C          59.6038   87.1694    7.4254 C.ar    1  UNL1        0.0160
      4 C          59.5872   88.6486    7.6741 C.ar    1  UNL1        0.0504
      5 C          60.2971   89.2165    8.8672 C.ar    1  UNL1        0.0160
      6 C          61.0236   88.3053    9.8115 C.ar    1  UNL1        0.0200
      7 N          58.8607   89.5598    6.7296 N.am    1  UNL1       -0.2839
      8 C          59.6322   90.4004    5.7560 C.2     1  UNL1        0.2260
      9 O          61.1303   90.3299    5.7267 O.2     1  UNL1       -0.2748
     10 H          57.8775   89.6061    6.7489 H       1  UNL1        0.1549
     11 C          58.9057   91.3116    4.8115 C.3     1  UNL1        0.0812
     12 C          57.6410   91.9905    4.3762 C.3     1  UNL1        0.0143
     13 C          58.9121   92.2111    3.6111 C.3     1  UNL1        0.0330
     14 C          59.6498   92.8577    2.4764 C.ar    1  UNL1       -0.0029
     15 C          61.0987   93.2141    2.6299 C.ar    1  UNL1       -0.0011
     16 C          61.8363   93.8607    1.4952 C.ar    1  UNL1        0.0204
     17 C          61.1250   94.1510    0.2068 C.ar    1  UNL1        0.0989
     18 N          59.6761   93.7945    0.0532 N.ar    1  UNL1       -0.2426
     19 C          58.9385   93.1479    1.1881 C.ar    1  UNL1        0.0946
     20 S          61.7667   85.9149   10.5072 S.O2    1  UNL1        0.0305
     21 O          62.4058   85.2177    9.3430 O.2     1  UNL1       -0.1641
     22 O          61.1276   86.6120   11.6715 O.2     1  UNL1       -0.1641
     23 N          63.5138   84.0979   13.4588 N.ar    1  UNL1       -0.2481
     24 C          62.7628   85.2713   12.9028 C.ar    1  UNL1        0.1154
     25 C          62.4932   85.0037   11.4517 C.ar    1  UNL1        0.1497
     26 C          63.0775   83.6650   11.1108 C.ar    1  UNL1        0.1404
     27 N          63.7084   83.1051   12.3512 N.ar    1  UNL1       -0.1662
     28 C          63.9872   83.9443   14.8738 C.3     1  UNL1        0.1276
     29 C          63.3208   85.8350   16.5265 C.3     1  UNL1        0.0021
     30 C          64.3546   85.1564   15.6775 C.3     1  UNL1        0.0264
@<TRIPOS>BOND
     1    29    30    1
     2    30    28    1
     3    28    23    1
     4    23    24   ar
     5    24    25   ar
     6    25    20    1
     7    20    21    2
     8    20    22    2
     9    20     1    1
    10     1     2   ar
    11     2     3   ar
    12     3     4   ar
    13     4     7    1
    14     7     8   am
    15     8     9    2
    16    11     8    1
    17    11    12    1
    18    12    13    1
    19    13    14    1
    20    14    15   ar
    21    15    16   ar
    22    16    17   ar
    23    17    18   ar
    24    18    19   ar
    25     4     5   ar
    26     5     6   ar
    27    25    26   ar
    28    26    27   ar
    29    27    23   ar
    30     6     1   ar
    31    13    11    1
    32    19    14   ar
    33     7    10    1
@<TRIPOS>MOLECULE
*****
 30 33 0 0 0
SMALL
GASTEIGER

@<TRIPOS>ATOM
      1 C          63.5041   86.6613   13.5004 C.ar    1  UNL1        0.1105
      2 C          64.2947   87.3438   14.5770 C.ar    1  UNL1        0.0200
      3 C          64.6107   88.8056   14.4631 C.ar    1  UNL1        0.0160
      4 C          64.1360   89.5851   13.2727 C.ar    1  UNL1        0.0504
      5 C          63.3454   88.9026   12.1961 C.ar    1  UNL1        0.0160
      6 C          63.0294   87.4407   12.3099 C.ar    1  UNL1        0.0200
      7 N          64.4520   91.0470   13.1588 N.am    1  UNL1       -0.2839
      8 C          65.8020   91.5566   13.5684 C.2     1  UNL1        0.2260
      9 O          66.8361   90.6043   14.0918 O.2     1  UNL1       -0.2748
     10 H          63.7734   91.6721   12.8153 H       1  UNL1        0.1549
     11 C          66.1181   93.0186   13.4546 C.3     1  UNL1        0.0812
     12 C          66.4664   94.3265   14.1011 C.3     1  UNL1        0.0143
     13 C          66.3170   94.2428   12.6109 C.3     1  UNL1        0.0330
     14 C          66.3457   94.9012   11.2635 C.ar    1  UNL1       -0.0029
     15 C          67.0978   94.2637   10.1330 C.ar    1  UNL1       -0.0011
     16 C          67.1264   94.9222    8.7856 C.ar    1  UNL1        0.0204
     17 C          66.4029   96.2182    8.5686 C.ar    1  UNL1        0.0989
     18 N          65.6508   96.8557    9.6990 N.ar    1  UNL1       -0.2426
     19 C          65.6222   96.1971   11.0465 C.ar    1  UNL1        0.0946
     20 S          63.1880   85.1993   13.6142 S.O2    1  UNL1        0.0305
     21 O          63.4332   85.0318   12.1439 O.2     1  UNL1       -0.1641
     22 O          62.9429   85.3669   15.0845 O.2     1  UNL1       -0.1641
     23 N          62.5907   81.3878   13.1888 N.ar    1  UNL1       -0.2481
     24 C          63.0179   82.7164   12.6390 C.ar    1  UNL1        0.1154
     25 C          62.8720   83.7375   13.7281 C.ar    1  UNL1        0.1497
     26 C          62.3546   83.0400   14.9511 C.ar    1  UNL1        0.1404
     27 N          62.1807   81.5878   14.6179 N.ar    1  UNL1       -0.1662
     28 C          62.5760   80.0876   12.4411 C.3     1  UNL1        0.1276
     29 C          62.7490   78.7806   10.2024 C.3     1  UNL1        0.0021
     30 C          62.8508   80.0673   10.9666 C.3     1  UNL1        0.0264
@<TRIPOS>BOND
     1    29    30    1
     2    30    28    1
     3    28    23    1
     4    23    24   ar
     5    24    25   ar
     6    25    20    1
     7    20    21    2
     8    20    22    2
     9    20     1    1
    10     1     2   ar
    11     2     3   ar
    12     3     4   ar
    13     4     7    1
    14     7     8   am
    15     8     9    2
    16    11     8    1
    17    11    12    1
    18    12    13    1
    19    13    14    1
    20    14    15   ar
    21    15    16   ar
    22    16    17   ar
    23    17    18   ar
    24    18    19   ar
    25     4     5   ar
    26     5     6   ar
    27    25    26   ar
    28    26    27   ar
    29    27    23   ar
    30     6     1   ar
    31    13    11    1
    32    19    14   ar
    33     7    10    1
@<TRIPOS>MOLECULE
*****
 30 33 0 0 0
SMALL
GASTEIGER

@<TRIPOS>ATOM
      1 C          63.6164   86.1038   13.8473 C.ar    1  UNL1        0.1105
      2 C          63.1902   86.8686   12.6293 C.ar    1  UNL1        0.0200
      3 C          63.4767   88.3374   12.5278 C.ar    1  UNL1        0.0160
      4 C          64.1894   89.0414   13.6442 C.ar    1  UNL1        0.0504
      5 C          64.6156   88.2766   14.8622 C.ar    1  UNL1        0.0160
      6 C          64.3291   86.8078   14.9637 C.ar    1  UNL1        0.0200
      7 N          64.4760   90.5104   13.5427 N.am    1  UNL1       -0.2839
      8 C          65.7815   91.0560   14.0403 C.2     1  UNL1        0.2260
      9 O          66.8006   90.1328   14.6396 O.2     1  UNL1       -0.2748
     10 H          63.8071   91.1163   13.1494 H       1  UNL1        0.1549
     11 C          66.0681   92.5249   13.9388 C.3     1  UNL1        0.0812
     12 C          66.3483   93.8424   14.5988 C.3     1  UNL1        0.0143
     13 C          66.2841   93.7516   13.1029 C.3     1  UNL1        0.0330
     14 C          66.3718   94.4073   11.7567 C.ar    1  UNL1       -0.0029
     15 C          66.1047   95.8769   11.6195 C.ar    1  UNL1       -0.0011
     16 C          66.1924   96.5326   10.2733 C.ar    1  UNL1        0.0204
     17 C          66.5472   95.7187    9.0642 C.ar    1  UNL1        0.0989
     18 N          66.8143   94.2490    9.2015 N.ar    1  UNL1       -0.2426
     19 C          66.7266   93.5933   10.5478 C.ar    1  UNL1        0.0946
     20 S          63.3298   84.6348   13.9488 S.O2    1  UNL1        0.0305
     21 O          62.1239   84.9282   14.7912 O.2     1  UNL1       -0.1641
     22 O          64.5357   84.3414   13.1065 O.2     1  UNL1       -0.1641
     23 N          61.8693   81.0432   14.1285 N.ar    1  UNL1       -0.2481
     24 C          61.6887   82.5252   13.9837 C.ar    1  UNL1        0.1154
     25 C          63.0433   83.1660   14.0503 C.ar    1  UNL1        0.1497
     26 C          64.0612   82.0800   14.2364 C.ar    1  UNL1        0.1404
     27 N          63.3357   80.7680   14.2847 N.ar    1  UNL1       -0.1662
     28 C          60.7758   80.0166   14.1188 C.3     1  UNL1        0.1276
     29 C          58.3440   79.6991   14.9767 C.3     1  UNL1        0.0021
     30 C          59.3399   80.4500   14.1434 C.3     1  UNL1        0.0264
@<TRIPOS>BOND
     1    29    30    1
     2    30    28    1
     3    28    23    1
     4    23    24   ar
     5    24    25   ar
     6    25    20    1
     7    20    21    2
     8    20    22    2
     9    20     1    1
    10     1     2   ar
    11     2     3   ar
    12     3     4   ar
    13     4     7    1
    14     7     8   am
    15     8     9    2
    16    11     8    1
    17    11    12    1
    18    12    13    1
    19    13    14    1
    20    14    15   ar
    21    15    16   ar
    22    16    17   ar
    23    17    18   ar
    24    18    19   ar
    25     4     5   ar
    26     5     6   ar
    27    25    26   ar
    28    26    27   ar
    29    27    23   ar
    30     6     1   ar
    31    13    11    1
    32    19    14   ar
    33     7    10    1
@<TRIPOS>MOLECULE
*****
 30 33 0 0 0
SMALL
GASTEIGER

@<TRIPOS>ATOM
      1 C          62.1679   94.3284    0.0359 C.ar    1  UNL1        0.1105
      2 C          61.8736   92.8613   -0.0685 C.ar    1  UNL1        0.0200
      3 C          60.9615   92.2067    0.9262 C.ar    1  UNL1        0.0160
      4 C          60.3436   93.0193    2.0252 C.ar    1  UNL1        0.0504
      5 C          60.6379   94.4864    2.1296 C.ar    1  UNL1        0.0160
      6 C          61.5501   95.1410    1.1349 C.ar    1  UNL1        0.0200
      7 N          59.4314   92.3647    3.0200 N.am    1  UNL1       -0.2839
      8 C          60.0065   91.6047    4.1782 C.2     1  UNL1        0.2260
      9 O          61.4938   91.4993    4.3419 O.2     1  UNL1       -0.2748
     10 H          58.4552   92.4339    2.9126 H       1  UNL1        0.1549
     11 C          59.0942   90.9501    5.1730 C.3     1  UNL1        0.0812
     12 C          57.7233   90.7649    5.7527 C.3     1  UNL1        0.0143
     13 C          58.8852   90.0016    6.3161 C.3     1  UNL1        0.0330
     14 C          59.4354   89.0133    7.3012 C.ar    1  UNL1       -0.0029
     15 C          59.3196   87.5422    7.0320 C.ar    1  UNL1       -0.0011
     16 C          59.8698   86.5539    8.0172 C.ar    1  UNL1        0.0204
     17 C          60.5357   87.0368    9.2716 C.ar    1  UNL1        0.0989
     18 N          60.6514   88.5079    9.5408 N.ar    1  UNL1       -0.2426
     19 C          60.1012   89.4962    8.5556 C.ar    1  UNL1        0.0946
     20 S          63.0802   94.9830   -0.9589 S.O2    1  UNL1        0.0305
     21 O          63.0482   93.7440   -1.8037 O.2     1  UNL1       -0.1641
     22 O          63.1122   96.2220   -0.1141 O.2     1  UNL1       -0.1641
     23 N          64.9361   96.4409   -4.0403 N.ar    1  UNL1       -0.2481
     24 C          63.7843   95.6922   -3.4380 C.ar    1  UNL1        0.1154
     25 C          63.9923   95.6376   -1.9535 C.ar    1  UNL1        0.1497
     26 C          65.2727   96.3526   -1.6383 C.ar    1  UNL1        0.1404
     27 N          65.8560   96.8490   -2.9280 N.ar    1  UNL1       -0.1662
     28 C          65.1334   96.7306   -5.4988 C.3     1  UNL1        0.1276
     29 C          67.3082   96.1249   -6.7846 C.3     1  UNL1        0.0021
     30 C          65.9141   95.7771   -6.3540 C.3     1  UNL1        0.0264
@<TRIPOS>BOND
     1    29    30    1
     2    30    28    1
     3    28    23    1
     4    23    24   ar
     5    24    25   ar
     6    25    20    1
     7    20    21    2
     8    20    22    2
     9    20     1    1
    10     1     2   ar
    11     2     3   ar
    12     3     4   ar
    13     4     7    1
    14     7     8   am
    15     8     9    2
    16    11     8    1
    17    11    12    1
    18    12    13    1
    19    13    14    1
    20    14    15   ar
    21    15    16   ar
    22    16    17   ar
    23    17    18   ar
    24    18    19   ar
    25     4     5   ar
    26     5     6   ar
    27    25    26   ar
    28    26    27   ar
    29    27    23   ar
    30     6     1   ar
    31    13    11    1
    32    19    14   ar
    33     7    10    1
@<TRIPOS>MOLECULE
*****
 30 33 0 0 0
SMALL
GASTEIGER

@<TRIPOS>ATOM
      1 C          61.0635   93.3660    1.8794 C.ar    1  UNL1        0.1105
      2 C          59.8285   93.3177    2.7292 C.ar    1  UNL1        0.0200
      3 C          59.7701   92.4025    3.9161 C.ar    1  UNL1        0.0160
      4 C          60.9469   91.5356    4.2533 C.ar    1  UNL1        0.0504
      5 C          62.1820   91.5839    3.4035 C.ar    1  UNL1        0.0160
      6 C          62.2403   92.4991    2.2165 C.ar    1  UNL1        0.0200
      7 N          60.8885   90.6203    5.4403 N.am    1  UNL1       -0.2839
      8 C          59.5647   90.1185    5.9361 C.2     1  UNL1        0.2260
      9 O          58.2993   90.5319    5.2448 O.2     1  UNL1       -0.2748
     10 H          61.7190   90.3490    5.8940 H       1  UNL1        0.1549
     11 C          59.5064   89.2033    7.1231 C.3     1  UNL1        0.0812
     12 C          59.0038   87.9477    7.7718 C.3     1  UNL1        0.0143
     13 C          59.9078   88.8736    8.5303 C.3     1  UNL1        0.0330
     14 C          60.6615   89.2180    9.7806 C.ar    1  UNL1       -0.0029
     15 C          62.1280   89.5254    9.7117 C.ar    1  UNL1       -0.0011
     16 C          62.8817   89.8697   10.9620 C.ar    1  UNL1        0.0204
     17 C          62.1688   89.9067   12.2814 C.ar    1  UNL1        0.0989
     18 N          60.7023   89.5993   12.3503 N.ar    1  UNL1       -0.2426
     19 C          59.9486   89.2549   11.0998 C.ar    1  UNL1        0.0946
     20 S          61.1219   94.2813    0.6923 S.O2    1  UNL1        0.0305
     21 O          60.0247   95.1167    1.2824 O.2     1  UNL1       -0.1641
     22 O          62.2191   93.4459    0.1022 O.2     1  UNL1       -0.1641
     23 N          61.9596   96.3555   -2.4796 N.ar    1  UNL1       -0.2481
     24 C          62.3302   95.3311   -1.4485 C.ar    1  UNL1        0.1154
     25 C          61.1803   95.1965   -0.4947 C.ar    1  UNL1        0.1497
     26 C          60.0992   96.1378   -0.9362 C.ar    1  UNL1        0.1404
     27 N          60.5808   96.8541   -2.1630 N.ar    1  UNL1       -0.1662
     28 C          62.8173   96.8029   -3.6260 C.3     1  UNL1        0.1276
     29 C          65.3736   96.4590   -3.3143 C.3     1  UNL1        0.0021
     30 C          64.0776   96.0588   -3.9548 C.3     1  UNL1        0.0264
@<TRIPOS>BOND
     1    29    30    1
     2    30    28    1
     3    28    23    1
     4    23    24   ar
     5    24    25   ar
     6    25    20    1
     7    20    21    2
     8    20    22    2
     9    20     1    1
    10     1     2   ar
    11     2     3   ar
    12     3     4   ar
    13     4     7    1
    14     7     8   am
    15     8     9    2
    16    11     8    1
    17    11    12    1
    18    12    13    1
    19    13    14    1
    20    14    15   ar
    21    15    16   ar
    22    16    17   ar
    23    17    18   ar
    24    18    19   ar
    25     4     5   ar
    26     5     6   ar
    27    25    26   ar
    28    26    27   ar
    29    27    23   ar
    30     6     1   ar
    31    13    11    1
    32    19    14   ar
    33     7    10    1
@<TRIPOS>MOLECULE
*****
 30 33 0 0 0
SMALL
GASTEIGER

@<TRIPOS>ATOM
      1 C          60.9766   93.3759    1.8477 C.ar    1  UNL1        0.1105
      2 C          62.1315   92.4651    2.1422 C.ar    1  UNL1        0.0200
      3 C          62.0958   91.5750    3.3490 C.ar    1  UNL1        0.0160
      4 C          60.9054   91.5957    4.2613 C.ar    1  UNL1        0.0504
      5 C          59.7505   92.5065    3.9668 C.ar    1  UNL1        0.0160
      6 C          59.7862   93.3966    2.7600 C.ar    1  UNL1        0.0200
      7 N          60.8698   90.7055    5.4681 N.am    1  UNL1       -0.2839
      8 C          59.5674   90.1253    5.9340 C.2     1  UNL1        0.2260
      9 O          58.3005   90.4352    5.1930 O.2     1  UNL1       -0.2748
     10 H          61.7013   90.5021    5.9545 H       1  UNL1        0.1549
     11 C          59.5318   89.2351    7.1408 C.3     1  UNL1        0.0812
     12 C          59.0511   87.9878    7.8212 C.3     1  UNL1        0.0143
     13 C          59.9508   88.9407    8.5507 C.3     1  UNL1        0.0330
     14 C          60.7122   89.3210    9.7858 C.ar    1  UNL1       -0.0029
     15 C          62.0972   89.8850    9.6692 C.ar    1  UNL1       -0.0011
     16 C          62.8587   90.2653   10.9044 C.ar    1  UNL1        0.0204
     17 C          62.2350   90.0815   12.2562 C.ar    1  UNL1        0.0989
     18 N          60.8500   89.5175   12.3728 N.ar    1  UNL1       -0.2426
     19 C          60.0886   89.1373   11.1376 C.ar    1  UNL1        0.0946
     20 S          61.0122   94.2661    0.6408 S.O2    1  UNL1        0.0305
     21 O          60.7229   95.4546    1.5089 O.2     1  UNL1       -0.1641
     22 O          61.3016   93.0775   -0.2272 O.2     1  UNL1       -0.1641
     23 N          60.4820   96.1960   -2.6847 N.ar    1  UNL1       -0.2481
     24 C          60.0645   95.1456   -1.6987 C.ar    1  UNL1        0.1154
     25 C          61.0478   95.1561   -0.5660 C.ar    1  UNL1        0.1497
     26 C          62.0730   96.2131   -0.8520 C.ar    1  UNL1        0.1404
     27 N          61.7233   96.8558   -2.1614 N.ar    1  UNL1       -0.1662
     28 C          59.7812   96.5283   -3.9686 C.3     1  UNL1        0.1276
     29 C          57.5601   96.5447   -5.3166 C.3     1  UNL1        0.0021
     30 C          58.2842   96.6168   -4.0049 C.3     1  UNL1        0.0264
@<TRIPOS>BOND
     1    29    30    1
     2    30    28    1
     3    28    23    1
     4    23    24   ar
     5    24    25   ar
     6    25    20    1
     7    20    21    2
     8    20    22    2
     9    20     1    1
    10     1     2   ar
    11     2     3   ar
    12     3     4   ar
    13     4     7    1
    14     7     8   am
    15     8     9    2
    16    11     8    1
    17    11    12    1
    18    12    13    1
    19    13    14    1
    20    14    15   ar
    21    15    16   ar
    22    16    17   ar
    23    17    18   ar
    24    18    19   ar
    25     4     5   ar
    26     5     6   ar
    27    25    26   ar
    28    26    27   ar
    29    27    23   ar
    30     6     1   ar
    31    13    11    1
    32    19    14   ar
    33     7    10    1
