@<TRIPOS>MOLECULE
*****
 59 65 0 0 0
SMALL
GASTEIGER

@<TRIPOS>ATOM
      1 N          63.7747   86.0671   16.0328 N.3     1  UNL1       -0.1862
      2 C          63.9018   84.5894   16.2565 C.3     1  UNL1        0.1775
      3 C          63.7903   83.6430   15.0981 C.2     1  UNL1        0.2452
      4 O          63.9174   82.1652   15.3219 O.2     1  UNL1       -0.2732
      5 N          63.5516   84.1744   13.7159 N.am    1  UNL1       -0.2541
      6 C          63.4401   83.2281   12.5574 C.3     1  UNL1        0.1577
      7 C          63.2015   83.7595   11.1752 C.2     1  UNL1        0.2445
      8 O          63.0899   82.8131   10.0167 O.2     1  UNL1       -0.2731
      9 N          63.0743   85.2373   10.9513 N.am    1  UNL1       -0.2705
     10 C          63.1858   86.1836   12.1098 C.3     1  UNL1        0.1359
     11 C          63.4245   85.6521   13.4921 C.3     1  UNL1        0.1908
     12 N          63.5360   86.5985   14.6505 N.am    1  UNL1       -0.1863
     13 C          63.4088   88.0763   14.4267 C.2     1  UNL1        0.3191
     14 O          63.1702   88.6077   13.0445 O.2     1  UNL1       -0.2512
     15 N          63.5204   89.0226   15.5851 N.am    1  UNL1       -0.2836
     16 H          63.6770   88.6738   16.4924 H       1  UNL1        0.1513
     17 C          63.8862   87.0134   17.1912 C.3     1  UNL1        0.1188
     18 C          62.6896   87.0637   19.4968 C.2     1  UNL1       -0.0034
     19 C          62.6770   87.3295   18.0206 C.2     1  UNL1       -0.0071
     20 C          63.5673   81.7504   12.7812 C.3     1  UNL1        0.0556
     21 C          62.3757   80.9534   13.2229 C.ar    1  UNL1       -0.0198
     22 C          62.4098   79.4552   13.1586 C.ar    1  UNL1       -0.0011
     23 C          61.2182   78.6583   13.6003 C.ar    1  UNL1        0.0363
     24 C          59.9926   79.3595   14.1062 C.ar    1  UNL1        0.1337
     25 O          58.8010   78.5626   14.5479 O.3     1  UNL1       -0.5055
     26 C          59.9584   80.8578   14.1704 C.ar    1  UNL1        0.0363
     27 C          61.1500   81.6548   13.7287 C.ar    1  UNL1       -0.0011
     28 H          58.8223   77.6267   14.5077 H       1  UNL1        0.2922
     29 C          62.8356   85.7687    9.5691 C.3     1  UNL1        0.1217
     30 C          62.1328   87.0804    9.3808 C.ar    1  UNL1        0.0135
     31 C          62.4862   88.2519   10.2484 C.ar    1  UNL1       -0.0012
     32 C          61.7834   89.5636   10.0602 C.ar    1  UNL1       -0.0002
     33 C          60.7272   89.7038    9.0044 C.ar    1  UNL1        0.0016
     34 C          60.3739   88.5324    8.1368 C.ar    1  UNL1        0.0214
     35 C          59.3827   88.3714    7.0224 C.ar    1  UNL1        0.0721
     36 C          59.4730   86.9603    6.5220 C.ar    1  UNL1        0.0805
     37 N          60.5198   86.2491    7.3270 N.ar    1  UNL1       -0.3241
     38 C          60.9368   84.8176    7.1629 C.3     1  UNL1        0.1305
     39 C          61.0767   87.2206    8.3250 C.ar    1  UNL1        0.0577
     40 C          58.4628   89.4351    6.5002 C.2     1  UNL1        0.2505
     41 O          57.0240   89.4564    6.9238 O.2     1  UNL1       -0.2699
     42 N          58.9817   90.4773    5.5544 N.am    1  UNL1       -0.2760
     43 C          58.0619   91.5408    5.0322 C.3     1  UNL1        0.0943
     44 C          58.5808   92.5830    4.0864 C.3     1  UNL1        0.0327
     45 C          60.0196   92.5617    3.6628 C.3     1  UNL1        0.1025
     46 C          60.9395   91.4980    4.1850 C.3     1  UNL1        0.0327
     47 C          60.4206   90.4558    5.1308 C.3     1  UNL1        0.0943
     48 C          60.5385   93.6039    2.7170 C.2     1  UNL1        0.3165
     49 O          59.9519   94.9844    2.7269 O.2     1  UNL1       -0.2501
     50 O          61.6440   93.2655    1.7613 O.3     1  UNL1       -0.4485
     51 C          61.3586   92.4265    0.5511 C.3     1  UNL1        0.2086
     52 C          59.9590   92.3258    0.0213 C.3     1  UNL1        0.0513
     53 C          63.3932   90.5003   15.3614 C.3     1  UNL1        0.1177
     54 C          64.6038   91.3122   15.0075 C.ar    1  UNL1       -0.0025
     55 C          65.3683   92.0264   16.0825 C.ar    1  UNL1       -0.0026
     56 C          66.5789   92.8383   15.7286 C.ar    1  UNL1       -0.0003
     57 C          67.0251   92.9360   14.2999 C.ar    1  UNL1       -0.0000
     58 C          66.2607   92.2218   13.2249 C.ar    1  UNL1       -0.0003
     59 C          65.0500   91.4099   13.5787 C.ar    1  UNL1       -0.0026
@<TRIPOS>BOND
     1    18    19    2
     2    19    17    1
     3    17     1    1
     4     1     2    1
     5     2     3    1
     6     3     4    2
     7     3     5   am
     8     5     6    1
     9     6    20    1
    10    20    21    1
    11    21    22   ar
    12    22    23   ar
    13    23    24   ar
    14    24    25    1
    15    24    26   ar
    16    26    27   ar
    17     6     7    1
    18     7     8    2
    19     7     9   am
    20     9    29    1
    21    29    30    1
    22    30    31   ar
    23    31    32   ar
    24    32    33   ar
    25    33    34   ar
    26    34    35   ar
    27    35    40    1
    28    40    41    2
    29    40    42   am
    30    42    43    1
    31    43    44    1
    32    44    45    1
    33    45    48    1
    34    48    49    2
    35    48    50    1
    36    50    51    1
    37    51    52    1
    38    45    46    1
    39    46    47    1
    40    35    36   ar
    41    36    37   ar
    42    37    38    1
    43    37    39   ar
    44     9    10    1
    45    11    10    1
    46    11    12    1
    47    12    13   am
    48    13    14    2
    49    13    15   am
    50    15    53    1
    51    53    54    1
    52    54    55   ar
    53    55    56   ar
    54    56    57   ar
    55    57    58   ar
    56    58    59   ar
    57    12     1    1
    58    59    54   ar
    59    11     5    1
    60    27    21   ar
    61    39    30   ar
    62    39    34   ar
    63    47    42    1
    64    25    28    1
    65    15    16    1
@<TRIPOS>MOLECULE
*****
 59 65 0 0 0
SMALL
GASTEIGER

@<TRIPOS>ATOM
      1 N          65.3595   89.3601   14.6680 N.3     1  UNL1       -0.1862
      2 C          65.5525   88.1122   15.4777 C.3     1  UNL1        0.1775
      3 C          64.8260   86.8547   15.1022 C.2     1  UNL1        0.2452
      4 O          65.0191   85.6068   15.9119 O.2     1  UNL1       -0.2732
      5 N          63.9065   86.8451   13.9171 N.am    1  UNL1       -0.2541
      6 C          63.1801   85.5876   13.5417 C.3     1  UNL1        0.1577
      7 C          62.2606   85.5780   12.3566 C.2     1  UNL1        0.2445
      8 O          61.5341   84.3205   11.9812 O.2     1  UNL1       -0.2731
      9 N          62.0676   86.8259   11.5469 N.am    1  UNL1       -0.2705
     10 C          62.7940   88.0834   11.9224 C.3     1  UNL1        0.1359
     11 C          63.7136   88.0930   13.1075 C.3     1  UNL1        0.1908
     12 N          64.4400   89.3505   13.4830 N.am    1  UNL1       -0.1863
     13 C          64.2470   90.5984   12.6733 C.2     1  UNL1        0.3191
     14 O          63.3275   90.5887   11.4882 O.2     1  UNL1       -0.2512
     15 N          64.9735   91.8559   13.0487 N.am    1  UNL1       -0.2836
     16 H          65.5770   91.8622   13.8265 H       1  UNL1        0.1513
     17 C          66.0860   90.6176   15.0435 C.3     1  UNL1        0.1188
     18 C          68.0945   92.2258   14.6839 C.2     1  UNL1       -0.0034
     19 C          67.4628   90.8768   14.5076 C.2     1  UNL1       -0.0071
     20 C          63.3731   84.3398   14.3513 C.3     1  UNL1        0.0556
     21 C          63.1731   82.9955   13.7166 C.ar    1  UNL1       -0.0198
     22 C          64.0201   82.5839   12.5490 C.ar    1  UNL1       -0.0011
     23 C          63.8201   81.2396   11.9143 C.ar    1  UNL1        0.0363
     24 C          62.7732   80.3069   12.4471 C.ar    1  UNL1        0.1337
     25 O          62.5733   78.9626   11.8124 O.3     1  UNL1       -0.5055
     26 C          61.9262   80.7184   13.6147 C.ar    1  UNL1        0.0363
     27 C          62.1261   82.0627   14.2495 C.ar    1  UNL1       -0.0011
     28 H          63.1024   78.7055   11.0830 H       1  UNL1        0.2922
     29 C          61.1481   86.8163   10.3619 C.3     1  UNL1        0.1217
     30 C          60.5582   88.1008    9.8598 C.ar    1  UNL1        0.0135
     31 C          60.3755   89.2586   10.7959 C.ar    1  UNL1       -0.0012
     32 C          59.7856   90.5431   10.2939 C.ar    1  UNL1       -0.0002
     33 C          59.3784   90.6698    8.8558 C.ar    1  UNL1        0.0016
     34 C          59.5610   89.5121    7.9198 C.ar    1  UNL1        0.0214
     35 C          59.2554   89.3429    6.4610 C.ar    1  UNL1        0.0721
     36 C          59.6565   87.9538    6.0615 C.ar    1  UNL1        0.0805
     37 N          60.2099   87.2646    7.2732 N.ar    1  UNL1       -0.3241
     38 C          60.7309   85.8590    7.3271 C.3     1  UNL1        0.1305
     39 C          60.1509   88.2276    8.4218 C.ar    1  UNL1        0.0577
     40 C          58.6543   90.3807    5.5600 C.2     1  UNL1        0.2505
     41 O          57.1759   90.6330    5.5883 O.2     1  UNL1       -0.2699
     42 N          59.5315   91.1661    4.6307 N.am    1  UNL1       -0.2760
     43 C          58.9305   92.2038    3.7297 C.3     1  UNL1        0.0943
     44 C          59.8077   92.9892    2.8004 C.3     1  UNL1        0.0327
     45 C          61.2861   92.7369    2.7721 C.3     1  UNL1        0.1025
     46 C          61.8872   91.6991    3.6732 C.3     1  UNL1        0.0327
     47 C          61.0099   90.9137    4.6025 C.3     1  UNL1        0.0943
     48 C          62.1634   93.5223    1.8428 C.2     1  UNL1        0.3165
     49 O          61.5727   94.6068    0.9913 O.2     1  UNL1       -0.2501
     50 O          63.6312   93.2232    1.7651 O.3     1  UNL1       -0.4485
     51 C          64.5983   94.3062    1.3888 C.3     1  UNL1        0.2086
     52 C          64.8359   95.4568    2.3213 C.3     1  UNL1        0.0513
     53 C          64.7805   93.1037   12.2391 C.3     1  UNL1        0.1177
     54 C          65.8129   93.5099   11.2295 C.ar    1  UNL1       -0.0025
     55 C          66.7748   92.4934   10.6898 C.ar    1  UNL1       -0.0026
     56 C          67.8072   92.8996    9.6803 C.ar    1  UNL1       -0.0003
     57 C          67.8776   94.3223    9.2104 C.ar    1  UNL1       -0.0000
     58 C          66.9156   95.3389    9.7500 C.ar    1  UNL1       -0.0003
     59 C          65.8832   94.9327   10.7596 C.ar    1  UNL1       -0.0026
@<TRIPOS>BOND
     1    18    19    2
     2    19    17    1
     3    17     1    1
     4     1     2    1
     5     2     3    1
     6     3     4    2
     7     3     5   am
     8     5     6    1
     9     6    20    1
    10    20    21    1
    11    21    22   ar
    12    22    23   ar
    13    23    24   ar
    14    24    25    1
    15    24    26   ar
    16    26    27   ar
    17     6     7    1
    18     7     8    2
    19     7     9   am
    20     9    29    1
    21    29    30    1
    22    30    31   ar
    23    31    32   ar
    24    32    33   ar
    25    33    34   ar
    26    34    35   ar
    27    35    40    1
    28    40    41    2
    29    40    42   am
    30    42    43    1
    31    43    44    1
    32    44    45    1
    33    45    48    1
    34    48    49    2
    35    48    50    1
    36    50    51    1
    37    51    52    1
    38    45    46    1
    39    46    47    1
    40    35    36   ar
    41    36    37   ar
    42    37    38    1
    43    37    39   ar
    44     9    10    1
    45    11    10    1
    46    11    12    1
    47    12    13   am
    48    13    14    2
    49    13    15   am
    50    15    53    1
    51    53    54    1
    52    54    55   ar
    53    55    56   ar
    54    56    57   ar
    55    57    58   ar
    56    58    59   ar
    57    12     1    1
    58    59    54   ar
    59    11     5    1
    60    27    21   ar
    61    39    30   ar
    62    39    34   ar
    63    47    42    1
    64    25    28    1
    65    15    16    1
@<TRIPOS>MOLECULE
*****
 59 65 0 0 0
SMALL
GASTEIGER

@<TRIPOS>ATOM
      1 N          63.3843   86.0786   15.8547 N.3     1  UNL1       -0.1862
      2 C          63.3838   84.6171   16.1923 C.3     1  UNL1        0.1775
      3 C          63.4793   83.5947   15.0988 C.2     1  UNL1        0.2452
      4 O          63.4787   82.1331   15.4364 O.2     1  UNL1       -0.2732
      5 N          63.5753   84.0339   13.6678 N.am    1  UNL1       -0.2541
      6 C          63.6708   83.0115   12.5743 C.3     1  UNL1        0.1577
      7 C          63.7668   83.4507   11.1433 C.2     1  UNL1        0.2445
      8 O          63.8623   82.4284   10.0498 O.2     1  UNL1       -0.2731
      9 N          63.7674   84.9123   10.8057 N.am    1  UNL1       -0.2705
     10 C          63.6719   85.9346   11.8991 C.3     1  UNL1        0.1359
     11 C          63.5758   85.4954   13.3302 C.3     1  UNL1        0.1908
     12 N          63.4803   86.5177   14.4237 N.am    1  UNL1       -0.1863
     13 C          63.4809   87.9793   14.0861 C.2     1  UNL1        0.3191
     14 O          63.5769   88.4184   12.6551 O.2     1  UNL1       -0.2512
     15 N          63.3854   89.0016   15.1796 N.am    1  UNL1       -0.2836
     16 H          63.3223   88.7134   16.1188 H       1  UNL1        0.1513
     17 C          63.2888   87.1009   16.9482 C.3     1  UNL1        0.1188
     18 C          62.6879   87.0692   19.4756 C.2     1  UNL1       -0.0034
     19 C          62.2732   86.9386   18.0400 C.2     1  UNL1       -0.0071
     20 C          63.6703   81.5500   12.9118 C.3     1  UNL1        0.0556
     21 C          62.3960   80.8768   13.3275 C.ar    1  UNL1       -0.0198
     22 C          62.3222   79.3796   13.3827 C.ar    1  UNL1       -0.0011
     23 C          61.0479   78.7063   13.7984 C.ar    1  UNL1        0.0363
     24 C          59.8473   79.5302   14.1588 C.ar    1  UNL1        0.1337
     25 O          58.5730   78.8569   14.5745 O.3     1  UNL1       -0.5055
     26 C          59.9211   81.0274   14.1036 C.ar    1  UNL1        0.0363
     27 C          61.1954   81.7007   13.6879 C.ar    1  UNL1       -0.0011
     28 H          58.5269   77.9216   14.6090 H       1  UNL1        0.2922
     29 C          63.8634   85.3514    9.3746 C.3     1  UNL1        0.1217
     30 C          62.6175   85.5185    8.5561 C.ar    1  UNL1        0.0135
     31 C          62.0869   84.3672    7.7543 C.ar    1  UNL1       -0.0012
     32 C          60.8411   84.5342    6.9359 C.ar    1  UNL1       -0.0002
     33 C          60.1258   85.8525    6.9192 C.ar    1  UNL1        0.0016
     34 C          60.6564   87.0039    7.7210 C.ar    1  UNL1        0.0214
     35 C          60.1701   88.4116    7.8991 C.ar    1  UNL1        0.0721
     36 C          61.1153   89.1146    8.8277 C.ar    1  UNL1        0.0805
     37 N          62.1858   88.1414    9.2234 N.ar    1  UNL1       -0.3241
     38 C          63.3378   88.4231   10.1419 C.3     1  UNL1        0.1305
     39 C          61.9023   86.8369    8.5394 C.ar    1  UNL1        0.0577
     40 C          58.9522   89.0111    7.2607 C.2     1  UNL1        0.2505
     41 O          57.5849   88.5814    7.7033 O.2     1  UNL1       -0.2699
     42 N          59.1016   90.0403    6.1798 N.am    1  UNL1       -0.2760
     43 C          57.8839   90.6398    5.5414 C.3     1  UNL1        0.0943
     44 C          58.0333   91.6689    4.4604 C.3     1  UNL1        0.0327
     45 C          59.4006   92.0986    4.0178 C.3     1  UNL1        0.1025
     46 C          60.6184   91.4991    4.6562 C.3     1  UNL1        0.0327
     47 C          60.4690   90.4699    5.7372 C.3     1  UNL1        0.0943
     48 C          59.5501   93.1278    2.9368 C.2     1  UNL1        0.3165
     49 O          59.9869   94.5205    3.2826 O.2     1  UNL1       -0.2501
     50 O          59.2628   92.7642    1.5102 O.3     1  UNL1       -0.4485
     51 C          60.3940   92.5086    0.5590 C.3     1  UNL1        0.2086
     52 C          61.7951   92.3761    1.0780 C.3     1  UNL1        0.0513
     53 C          63.3859   90.4631   14.8421 C.3     1  UNL1        0.1177
     54 C          64.5691   91.0727   14.1505 C.ar    1  UNL1       -0.0025
     55 C          64.4126   91.6721   12.7844 C.ar    1  UNL1       -0.0026
     56 C          65.5959   92.2818   12.0928 C.ar    1  UNL1       -0.0003
     57 C          66.9356   92.2919   12.7672 C.ar    1  UNL1       -0.0000
     58 C          67.0922   91.6925   14.1334 C.ar    1  UNL1       -0.0003
     59 C          65.9089   91.0829   14.8250 C.ar    1  UNL1       -0.0026
@<TRIPOS>BOND
     1    18    19    2
     2    19    17    1
     3    17     1    1
     4     1     2    1
     5     2     3    1
     6     3     4    2
     7     3     5   am
     8     5     6    1
     9     6    20    1
    10    20    21    1
    11    21    22   ar
    12    22    23   ar
    13    23    24   ar
    14    24    25    1
    15    24    26   ar
    16    26    27   ar
    17     6     7    1
    18     7     8    2
    19     7     9   am
    20     9    29    1
    21    29    30    1
    22    30    31   ar
    23    31    32   ar
    24    32    33   ar
    25    33    34   ar
    26    34    35   ar
    27    35    40    1
    28    40    41    2
    29    40    42   am
    30    42    43    1
    31    43    44    1
    32    44    45    1
    33    45    48    1
    34    48    49    2
    35    48    50    1
    36    50    51    1
    37    51    52    1
    38    45    46    1
    39    46    47    1
    40    35    36   ar
    41    36    37   ar
    42    37    38    1
    43    37    39   ar
    44     9    10    1
    45    11    10    1
    46    11    12    1
    47    12    13   am
    48    13    14    2
    49    13    15   am
    50    15    53    1
    51    53    54    1
    52    54    55   ar
    53    55    56   ar
    54    56    57   ar
    55    57    58   ar
    56    58    59   ar
    57    12     1    1
    58    59    54   ar
    59    11     5    1
    60    27    21   ar
    61    39    30   ar
    62    39    34   ar
    63    47    42    1
    64    25    28    1
    65    15    16    1
