@<TRIPOS>MOLECULE
*****
 26 29 0 0 0
SMALL
GASTEIGER

@<TRIPOS>ATOM
      1 C          64.0746   91.0200   12.8100 C.ar    1  UNL1        0.1386
      2 C          63.6121   89.6638   13.2538 C.ar    1  UNL1        0.0369
      3 C          62.8661   88.7770   12.3013 C.ar    1  UNL1        0.0043
      4 C          62.5827   89.2464   10.9051 C.ar    1  UNL1        0.0152
      5 C          63.0452   90.6026   10.4614 C.ar    1  UNL1        0.0043
      6 C          63.7912   91.4894   11.4139 C.ar    1  UNL1        0.0369
      7 C          61.8368   88.3597    9.9526 C.2     1  UNL1        0.0763
      8 N          60.6857   88.9079    9.1625 N.2     1  UNL1       -0.1836
      9 N          59.9397   88.0212    8.2100 N.am    1  UNL1       -0.2062
     10 C          60.3449   86.5861    8.0477 C.2     1  UNL1        0.2410
     11 O          59.5989   85.6993    7.0952 O.2     1  UNL1       -0.2734
     12 C          61.4961   86.0378    8.8378 C.3     1  UNL1        0.0841
     13 C          62.6472   85.4895    9.6279 C.3     1  UNL1        0.0160
     14 C          62.2420   86.9245    9.7903 C.3     1  UNL1        0.0509
     15 H          59.1842   88.3810    7.6915 H       1  UNL1        0.1772
     16 O          64.8205   91.9068   13.7625 O.3     1  UNL1       -0.4754
     17 C          66.1163   91.4440   14.3597 C.3     1  UNL1        0.2067
     18 C          68.4064   92.5803   14.8222 C.3     1  UNL1        0.0053
     19 C          67.4152   92.0010   13.8570 C.3     1  UNL1        0.0597
     20 C          67.7228   91.9786   12.3891 C.3     1  UNL1        0.0757
     21 N          67.2156   93.0749   11.4997 N.3     1  UNL1       -0.2738
     22 C          66.3243   94.2071   11.9166 C.3     1  UNL1        0.0721
     23 C          66.0685   95.0634   10.7118 C.3     1  UNL1        0.0187
     24 C          66.8017   94.4603    9.5504 C.3     1  UNL1        0.0174
     25 C          67.5106   93.2314   10.0374 C.3     1  UNL1        0.0576
     26 C          68.3646   92.3191    9.2076 C.3     1  UNL1        0.0173
@<TRIPOS>BOND
     1    19    18    1
     2    19    17    1
     3    17    16    1
     4    16     1    1
     5     1     2   ar
     6     2     3   ar
     7     3     4   ar
     8     4     7    1
     9     7     8    2
    10     8     9    1
    11     9    10   am
    12    10    11    2
    13    10    12    1
    14    12    13    1
    15    13    14    1
    16     4     5   ar
    17     5     6   ar
    18    19    20    1
    19    20    21    1
    20    21    22    1
    21    22    23    1
    22    23    24    1
    23    24    25    1
    24    25    26    1
    25     6     1   ar
    26    25    21    1
    27    14     7    1
    28    14    12    1
    29     9    15    1
@<TRIPOS>MOLECULE
*****
 26 29 0 0 0
SMALL
GASTEIGER

@<TRIPOS>ATOM
      1 C          63.7721   89.4100   13.4288 C.ar    1  UNL1        0.1386
      2 C          64.3508   88.7371   14.6381 C.ar    1  UNL1        0.0369
      3 C          64.3075   87.2425   14.7575 C.ar    1  UNL1        0.0043
      4 C          63.6855   86.4207   13.6675 C.ar    1  UNL1        0.0152
      5 C          63.1068   87.0936   12.4583 C.ar    1  UNL1        0.0043
      6 C          63.1501   88.5882   12.3389 C.ar    1  UNL1        0.0369
      7 C          63.6422   84.9261   13.7869 C.2     1  UNL1        0.0763
      8 N          63.2740   84.2885   15.0937 N.2     1  UNL1       -0.1836
      9 N          63.2307   82.7938   15.2131 N.am    1  UNL1       -0.2062
     10 C          63.5556   81.9369   14.0257 C.2     1  UNL1        0.2410
     11 O          63.5123   80.4423   14.1451 O.2     1  UNL1       -0.2734
     12 C          63.9238   82.5745   12.7188 C.3     1  UNL1        0.0841
     13 C          64.2919   83.2122   11.4120 C.3     1  UNL1        0.0160
     14 C          63.9671   84.0691   12.5994 C.3     1  UNL1        0.0509
     15 H          62.9891   82.3753   16.0709 H       1  UNL1        0.1772
     16 O          63.8154   90.9046   13.3094 O.3     1  UNL1       -0.4754
     17 C          65.1349   91.6114   13.2134 C.3     1  UNL1        0.2067
     18 C          64.6548   92.1726   10.7226 C.3     1  UNL1        0.0053
     19 C          65.5399   92.2726   11.9294 C.3     1  UNL1        0.0597
     20 C          66.8301   93.0337   11.8521 C.3     1  UNL1        0.0757
     21 N          67.0561   94.0160   10.7413 N.3     1  UNL1       -0.2738
     22 C          66.5829   95.4392   10.7129 C.3     1  UNL1        0.0721
     23 C          67.0293   96.0503    9.4178 C.3     1  UNL1        0.0187
     24 C          67.7784   95.0049    8.6457 C.3     1  UNL1        0.0174
     25 C          67.7949   93.7476    9.4637 C.3     1  UNL1        0.0576
     26 C          68.4375   92.4498    9.0727 C.3     1  UNL1        0.0173
@<TRIPOS>BOND
     1    19    18    1
     2    19    17    1
     3    17    16    1
     4    16     1    1
     5     1     2   ar
     6     2     3   ar
     7     3     4   ar
     8     4     7    1
     9     7     8    2
    10     8     9    1
    11     9    10   am
    12    10    11    2
    13    10    12    1
    14    12    13    1
    15    13    14    1
    16     4     5   ar
    17     5     6   ar
    18    19    20    1
    19    20    21    1
    20    21    22    1
    21    22    23    1
    22    23    24    1
    23    24    25    1
    24    25    26    1
    25     6     1   ar
    26    25    21    1
    27    14     7    1
    28    14    12    1
    29     9    15    1
@<TRIPOS>MOLECULE
*****
 26 29 0 0 0
SMALL
GASTEIGER

@<TRIPOS>ATOM
      1 C          62.8147   89.0035   12.1832 C.ar    1  UNL1        0.1386
      2 C          63.0734   90.3960   11.6890 C.ar    1  UNL1        0.0369
      3 C          64.0605   91.2731   12.4006 C.ar    1  UNL1        0.0043
      4 C          64.7889   90.7576   13.6064 C.ar    1  UNL1        0.0152
      5 C          64.5302   89.3652   14.1005 C.ar    1  UNL1        0.0043
      6 C          63.5430   88.4882   13.3889 C.ar    1  UNL1        0.0369
      7 C          65.7760   91.6347   14.3180 C.2     1  UNL1        0.0763
      8 N          65.3591   92.3920   15.5438 N.2     1  UNL1       -0.1836
      9 N          66.3462   93.2691   16.2554 N.am    1  UNL1       -0.2062
     10 C          67.7502   93.3887   15.7413 C.2     1  UNL1        0.2410
     11 O          68.7374   94.2658   16.4529 O.2     1  UNL1       -0.2734
     12 C          68.1672   92.6314   14.5155 C.3     1  UNL1        0.0841
     13 C          68.5841   91.8740   13.2897 C.3     1  UNL1        0.0160
     14 C          67.1801   91.7543   13.8038 C.3     1  UNL1        0.0509
     15 H          66.0726   93.7661   17.0600 H       1  UNL1        0.1772
     16 O          61.8276   88.1265   11.4716 O.3     1  UNL1       -0.4754
     17 C          62.1174   87.6463   10.0804 C.3     1  UNL1        0.2067
     18 C          62.9106   85.7211    8.5265 C.3     1  UNL1        0.0053
     19 C          62.2941   86.1807    9.8144 C.3     1  UNL1        0.0597
     20 C          61.8544   85.1746   10.8364 C.3     1  UNL1        0.0757
     21 N          62.8562   84.5749   11.7780 N.3     1  UNL1       -0.2738
     22 C          63.1016   85.0035   13.1944 C.3     1  UNL1        0.0721
     23 C          64.1857   84.1347   13.7602 C.3     1  UNL1        0.0187
     24 C          64.6103   83.1693   12.6936 C.3     1  UNL1        0.0174
     25 C          63.7886   83.4414   11.4685 C.3     1  UNL1        0.0576
     26 C          63.8828   82.7085   10.1631 C.3     1  UNL1        0.0173
@<TRIPOS>BOND
     1    19    18    1
     2    19    17    1
     3    17    16    1
     4    16     1    1
     5     1     2   ar
     6     2     3   ar
     7     3     4   ar
     8     4     7    1
     9     7     8    2
    10     8     9    1
    11     9    10   am
    12    10    11    2
    13    10    12    1
    14    12    13    1
    15    13    14    1
    16     4     5   ar
    17     5     6   ar
    18    19    20    1
    19    20    21    1
    20    21    22    1
    21    22    23    1
    22    23    24    1
    23    24    25    1
    24    25    26    1
    25     6     1   ar
    26    25    21    1
    27    14     7    1
    28    14    12    1
    29     9    15    1
@<TRIPOS>MOLECULE
*****
 26 29 0 0 0
SMALL
GASTEIGER

@<TRIPOS>ATOM
      1 C          63.5959   90.2990   13.7331 C.ar    1  UNL1        0.1386
      2 C          63.1069   90.4609   12.3243 C.ar    1  UNL1        0.0369
      3 C          63.8340   91.3695   11.3778 C.ar    1  UNL1        0.0043
      4 C          65.0501   92.1161   11.8402 C.ar    1  UNL1        0.0152
      5 C          65.5391   91.9541   13.2490 C.ar    1  UNL1        0.0043
      6 C          64.8120   91.0455   14.1954 C.ar    1  UNL1        0.0369
      7 C          65.7773   93.0247   10.8937 C.2     1  UNL1        0.0763
      8 N          65.1953   94.3615   10.5413 N.2     1  UNL1       -0.1836
      9 N          65.9224   95.2701    9.5949 N.am    1  UNL1       -0.2062
     10 C          67.2315   94.8418    9.0008 C.2     1  UNL1        0.2410
     11 O          67.9586   95.7504    8.0544 O.2     1  UNL1       -0.2734
     12 C          67.8135   93.5050    9.3532 C.3     1  UNL1        0.0841
     13 C          68.3955   92.1682    9.7057 C.3     1  UNL1        0.0160
     14 C          67.0864   92.5964   10.2997 C.3     1  UNL1        0.0509
     15 H          65.5405   96.1475    9.3636 H       1  UNL1        0.1772
     16 O          62.8688   89.3904   14.6796 O.3     1  UNL1       -0.4754
     17 C          63.6062   88.7449   15.8151 C.3     1  UNL1        0.2067
     18 C          63.0926   86.4962   17.0107 C.3     1  UNL1        0.0053
     19 C          63.7252   87.2510   15.8793 C.3     1  UNL1        0.0597
     20 C          64.4766   86.5118   14.8121 C.3     1  UNL1        0.0757
     21 N          63.7341   85.6639   13.8224 N.3     1  UNL1       -0.2738
     22 C          63.0895   86.1462   12.5566 C.3     1  UNL1        0.0721
     23 C          62.4628   84.9651   11.8765 C.3     1  UNL1        0.0187
     24 C          62.7201   83.7530   12.7219 C.3     1  UNL1        0.0174
     25 C          63.5058   84.1849   13.9245 C.3     1  UNL1        0.0576
     26 C          63.9800   83.2942   15.0343 C.3     1  UNL1        0.0173
@<TRIPOS>BOND
     1    19    18    1
     2    19    17    1
     3    17    16    1
     4    16     1    1
     5     1     2   ar
     6     2     3   ar
     7     3     4   ar
     8     4     7    1
     9     7     8    2
    10     8     9    1
    11     9    10   am
    12    10    11    2
    13    10    12    1
    14    12    13    1
    15    13    14    1
    16     4     5   ar
    17     5     6   ar
    18    19    20    1
    19    20    21    1
    20    21    22    1
    21    22    23    1
    22    23    24    1
    23    24    25    1
    24    25    26    1
    25     6     1   ar
    26    25    21    1
    27    14     7    1
    28    14    12    1
    29     9    15    1
@<TRIPOS>MOLECULE
*****
 26 29 0 0 0
SMALL
GASTEIGER

@<TRIPOS>ATOM
      1 C          62.7151   90.6111   10.8541 C.ar    1  UNL1        0.1386
      2 C          63.7212   91.6166   10.3777 C.ar    1  UNL1        0.0369
      3 C          64.8404   92.0434   11.2805 C.ar    1  UNL1        0.0043
      4 C          64.9535   91.4648   12.6599 C.ar    1  UNL1        0.0152
      5 C          63.9475   90.4594   13.1362 C.ar    1  UNL1        0.0043
      6 C          62.8283   90.0325   12.2333 C.ar    1  UNL1        0.0369
      7 C          66.0727   91.8916   13.5627 C.2     1  UNL1        0.0763
      8 N          67.4673   92.0110   13.0236 N.2     1  UNL1       -0.1836
      9 N          68.5865   92.4379   13.9265 N.am    1  UNL1       -0.2062
     10 C          68.3111   92.7454   15.3685 C.2     1  UNL1        0.2410
     11 O          69.4303   93.1722   16.2714 O.2     1  UNL1       -0.2734
     12 C          66.9164   92.6260   15.9078 C.3     1  UNL1        0.0841
     13 C          65.5218   92.5066   16.4469 C.3     1  UNL1        0.0160
     14 C          65.7972   92.1991   15.0049 C.3     1  UNL1        0.0509
     15 H          69.5019   92.5163   13.5726 H       1  UNL1        0.1772
     16 O          61.5959   90.1842    9.9512 O.3     1  UNL1       -0.4754
     17 C          60.4630   89.3662   10.4963 C.3     1  UNL1        0.2067
     18 C          59.5046   87.5090    8.9529 C.3     1  UNL1        0.0053
     19 C          60.3402   87.9168   10.1299 C.3     1  UNL1        0.0597
     20 C          61.0530   86.8753   10.9405 C.3     1  UNL1        0.0757
     21 N          61.9923   85.9166   10.2706 N.3     1  UNL1       -0.2738
     22 C          62.3885   85.9361    8.8240 C.3     1  UNL1        0.0721
     23 C          63.3413   84.8017    8.5891 C.3     1  UNL1        0.0187
     24 C          63.5340   84.0811    9.8905 C.3     1  UNL1        0.0174
     25 C          62.7002   84.7702   10.9297 C.3     1  UNL1        0.0576
     26 C          62.5932   84.3811   12.3744 C.3     1  UNL1        0.0173
@<TRIPOS>BOND
     1    19    18    1
     2    19    17    1
     3    17    16    1
     4    16     1    1
     5     1     2   ar
     6     2     3   ar
     7     3     4   ar
     8     4     7    1
     9     7     8    2
    10     8     9    1
    11     9    10   am
    12    10    11    2
    13    10    12    1
    14    12    13    1
    15    13    14    1
    16     4     5   ar
    17     5     6   ar
    18    19    20    1
    19    20    21    1
    20    21    22    1
    21    22    23    1
    22    23    24    1
    23    24    25    1
    24    25    26    1
    25     6     1   ar
    26    25    21    1
    27    14     7    1
    28    14    12    1
    29     9    15    1
@<TRIPOS>MOLECULE
*****
 26 29 0 0 0
SMALL
GASTEIGER

@<TRIPOS>ATOM
      1 C          64.3747   90.0441   13.9945 C.ar    1  UNL1        0.1386
      2 C          63.7493   90.8404   12.8878 C.ar    1  UNL1        0.0369
      3 C          62.9823   90.1436   11.8033 C.ar    1  UNL1        0.0043
      4 C          62.8407   88.6504   11.8256 C.ar    1  UNL1        0.0152
      5 C          63.4661   87.8541   12.9323 C.ar    1  UNL1        0.0043
      6 C          64.2331   88.5510   14.0168 C.ar    1  UNL1        0.0369
      7 C          62.0737   87.9535   10.7411 C.2     1  UNL1        0.0763
      8 N          62.2627   86.4828   10.5152 N.2     1  UNL1       -0.1836
      9 N          61.4956   85.7859    9.4307 N.am    1  UNL1       -0.2062
     10 C          60.5396   86.5598    8.5722 C.2     1  UNL1        0.2410
     11 O          59.7726   85.8629    7.4877 O.2     1  UNL1       -0.2734
     12 C          60.3506   88.0306    8.7981 C.3     1  UNL1        0.0841
     13 C          60.1616   89.5014    9.0241 C.3     1  UNL1        0.0160
     14 C          61.1176   88.7275    9.8826 C.3     1  UNL1        0.0509
     15 H          61.6197   84.8206    9.2824 H       1  UNL1        0.1772
     16 O          65.1418   90.7410   15.0790 O.3     1  UNL1       -0.4754
     17 C          65.1783   92.2397   15.1275 C.3     1  UNL1        0.2067
     18 C          67.6198   92.5967   15.9409 C.3     1  UNL1        0.0053
     19 C          66.4891   92.9617   15.0252 C.3     1  UNL1        0.0597
     20 C          66.6694   94.0486   14.0074 C.3     1  UNL1        0.0757
     21 N          66.6639   93.7150   12.5450 N.3     1  UNL1       -0.2738
     22 C          66.9387   92.3670   11.9470 C.3     1  UNL1        0.0721
     23 C          66.8273   92.4898   10.4562 C.3     1  UNL1        0.0187
     24 C          66.4836   93.9136   10.1327 C.3     1  UNL1        0.0174
     25 C          66.3826   94.6708   11.4237 C.3     1  UNL1        0.0576
     26 C          66.0573   96.1280   11.5679 C.3     1  UNL1        0.0173
@<TRIPOS>BOND
     1    19    18    1
     2    19    17    1
     3    17    16    1
     4    16     1    1
     5     1     2   ar
     6     2     3   ar
     7     3     4   ar
     8     4     7    1
     9     7     8    2
    10     8     9    1
    11     9    10   am
    12    10    11    2
    13    10    12    1
    14    12    13    1
    15    13    14    1
    16     4     5   ar
    17     5     6   ar
    18    19    20    1
    19    20    21    1
    20    21    22    1
    21    22    23    1
    22    23    24    1
    23    24    25    1
    24    25    26    1
    25     6     1   ar
    26    25    21    1
    27    14     7    1
    28    14    12    1
    29     9    15    1
@<TRIPOS>MOLECULE
*****
 26 29 0 0 0
SMALL
GASTEIGER

@<TRIPOS>ATOM
      1 C          63.4639   84.0835   11.5907 C.ar    1  UNL1        0.1386
      2 C          63.6207   84.0662   10.0990 C.ar    1  UNL1        0.0369
      3 C          62.7854   84.9748    9.2465 C.ar    1  UNL1        0.0043
      4 C          61.7932   85.9006    9.8857 C.ar    1  UNL1        0.0152
      5 C          61.6364   85.9179   11.3773 C.ar    1  UNL1        0.0043
      6 C          62.4717   85.0093   12.2299 C.ar    1  UNL1        0.0369
      7 C          60.9579   86.8092    9.0332 C.2     1  UNL1        0.0763
      8 N          60.1581   86.2453    7.8964 N.2     1  UNL1       -0.1836
      9 N          59.3227   87.1539    7.0439 N.am    1  UNL1       -0.2062
     10 C          59.2873   88.6262    7.3281 C.2     1  UNL1        0.2410
     11 O          58.4520   89.5348    6.4756 O.2     1  UNL1       -0.2734
     12 C          60.0872   89.1901    8.4649 C.3     1  UNL1        0.0841
     13 C          60.8870   89.7540    9.6017 C.3     1  UNL1        0.0160
     14 C          60.9225   88.2816    9.3175 C.3     1  UNL1        0.0509
     15 H          58.7978   86.7838    6.2978 H       1  UNL1        0.1772
     16 O          64.2992   83.1750   12.4433 O.3     1  UNL1       -0.4754
     17 C          64.1536   83.2035   13.9359 C.3     1  UNL1        0.2067
     18 C          66.0417   84.8926   14.5117 C.3     1  UNL1        0.0053
     19 C          64.6439   84.3879   14.7148 C.3     1  UNL1        0.0597
     20 C          63.7364   85.0675   15.6969 C.3     1  UNL1        0.0757
     21 N          63.6844   86.5653   15.7578 N.3     1  UNL1       -0.2738
     22 C          64.1618   87.5082   14.6932 C.3     1  UNL1        0.0721
     23 C          63.9182   88.9089   15.1715 C.3     1  UNL1        0.0187
     24 C          63.2903   88.8318   16.5315 C.3     1  UNL1        0.0174
     25 C          63.1458   87.3834   16.8939 C.3     1  UNL1        0.0576
     26 C          62.5646   86.8472   18.1686 C.3     1  UNL1        0.0173
@<TRIPOS>BOND
     1    19    18    1
     2    19    17    1
     3    17    16    1
     4    16     1    1
     5     1     2   ar
     6     2     3   ar
     7     3     4   ar
     8     4     7    1
     9     7     8    2
    10     8     9    1
    11     9    10   am
    12    10    11    2
    13    10    12    1
    14    12    13    1
    15    13    14    1
    16     4     5   ar
    17     5     6   ar
    18    19    20    1
    19    20    21    1
    20    21    22    1
    21    22    23    1
    22    23    24    1
    23    24    25    1
    24    25    26    1
    25     6     1   ar
    26    25    21    1
    27    14     7    1
    28    14    12    1
    29     9    15    1
@<TRIPOS>MOLECULE
*****
 26 29 0 0 0
SMALL
GASTEIGER

@<TRIPOS>ATOM
      1 C          63.2184   84.3933    9.8836 C.ar    1  UNL1        0.1386
      2 C          62.7474   84.6621   11.2822 C.ar    1  UNL1        0.0369
      3 C          61.9932   85.9215   11.5904 C.ar    1  UNL1        0.0043
      4 C          61.7100   86.9121   10.5002 C.ar    1  UNL1        0.0152
      5 C          62.1810   86.6432    9.1017 C.ar    1  UNL1        0.0043
      6 C          62.9352   85.3838    8.7934 C.ar    1  UNL1        0.0369
      7 C          60.9557   88.1715   10.8084 C.2     1  UNL1        0.0763
      8 N          59.6023   88.0970   11.4507 N.2     1  UNL1       -0.1836
      9 N          58.8480   89.3564   11.7590 N.am    1  UNL1       -0.2062
     10 C          59.4472   90.6903   11.4250 C.2     1  UNL1        0.2410
     11 O          58.6930   91.9497   11.7333 O.2     1  UNL1       -0.2734
     12 C          60.8007   90.7648   10.7827 C.3     1  UNL1        0.0841
     13 C          62.1542   90.8393   10.1404 C.3     1  UNL1        0.0160
     14 C          61.5550   89.5054   10.4744 C.3     1  UNL1        0.0509
     15 H          57.9597   89.3074   12.1806 H       1  UNL1        0.1772
     16 O          63.9727   83.1339    9.5753 O.3     1  UNL1       -0.4754
     17 C          64.7278   82.4270   10.6615 C.3     1  UNL1        0.2067
     18 C          62.8735   80.6886   11.1994 C.3     1  UNL1        0.0053
     19 C          63.9927   81.5771   11.6552 C.3     1  UNL1        0.0597
     20 C          64.3768   81.6158   13.1046 C.3     1  UNL1        0.0757
     21 N          63.8129   82.6775   14.0018 N.3     1  UNL1       -0.2738
     22 C          64.5391   83.8956   14.4908 C.3     1  UNL1        0.0721
     23 C          63.5988   84.6784   15.3588 C.3     1  UNL1        0.0187
     24 C          62.2917   83.9441   15.4062 C.3     1  UNL1        0.0174
     25 C          62.4241   82.7075   14.5676 C.3     1  UNL1        0.0576
     26 C          61.3551   81.6811   14.3354 C.3     1  UNL1        0.0173
@<TRIPOS>BOND
     1    19    18    1
     2    19    17    1
     3    17    16    1
     4    16     1    1
     5     1     2   ar
     6     2     3   ar
     7     3     4   ar
     8     4     7    1
     9     7     8    2
    10     8     9    1
    11     9    10   am
    12    10    11    2
    13    10    12    1
    14    12    13    1
    15    13    14    1
    16     4     5   ar
    17     5     6   ar
    18    19    20    1
    19    20    21    1
    20    21    22    1
    21    22    23    1
    22    23    24    1
    23    24    25    1
    24    25    26    1
    25     6     1   ar
    26    25    21    1
    27    14     7    1
    28    14    12    1
    29     9    15    1
@<TRIPOS>MOLECULE
*****
 26 29 0 0 0
SMALL
GASTEIGER

@<TRIPOS>ATOM
      1 C          62.1400   88.1981   11.5763 C.ar    1  UNL1        0.1386
      2 C          62.0435   89.0998   10.3814 C.ar    1  UNL1        0.0369
      3 C          62.8494   90.3638   10.3287 C.ar    1  UNL1        0.0043
      4 C          63.7519   90.7260   11.4708 C.ar    1  UNL1        0.0152
      5 C          63.8484   89.8242   12.6656 C.ar    1  UNL1        0.0043
      6 C          63.0424   88.5603   12.7183 C.ar    1  UNL1        0.0369
      7 C          64.5579   91.9899   11.4181 C.2     1  UNL1        0.0763
      8 N          64.5512   92.8325   10.1772 N.2     1  UNL1       -0.1836
      9 N          65.3572   94.0965   10.1245 N.am    1  UNL1       -0.2062
     10 C          66.1699   94.5179   11.3127 C.2     1  UNL1        0.2410
     11 O          66.9759   95.7818   11.2600 O.2     1  UNL1       -0.2734
     12 C          66.1767   93.6752   12.5537 C.3     1  UNL1        0.0841
     13 C          66.1834   92.8326   13.7947 C.3     1  UNL1        0.0160
     14 C          65.3707   92.4113   12.6064 C.3     1  UNL1        0.0509
     15 H          65.3528   94.6495    9.3100 H       1  UNL1        0.1772
     16 O          61.3340   86.9341   11.6290 O.3     1  UNL1       -0.4754
     17 C          61.4321   85.9350   10.5145 C.3     1  UNL1        0.2067
     18 C          63.5085   84.6661    9.6042 C.3     1  UNL1        0.0053
     19 C          62.4044   84.7968   10.6111 C.3     1  UNL1        0.0597
     20 C          62.2727   83.7894   11.7146 C.3     1  UNL1        0.0757
     21 N          62.9463   84.0290   13.0332 N.3     1  UNL1       -0.2738
     22 C          63.8439   85.1833   13.3679 C.3     1  UNL1        0.0721
     23 C          64.2929   85.0241   14.7903 C.3     1  UNL1        0.0187
     24 C          63.6727   83.7714   15.3347 C.3     1  UNL1        0.0174
     25 C          62.8405   83.1565   14.2488 C.3     1  UNL1        0.0576
     26 C          62.0425   81.8912   14.3590 C.3     1  UNL1        0.0173
@<TRIPOS>BOND
     1    19    18    1
     2    19    17    1
     3    17    16    1
     4    16     1    1
     5     1     2   ar
     6     2     3   ar
     7     3     4   ar
     8     4     7    1
     9     7     8    2
    10     8     9    1
    11     9    10   am
    12    10    11    2
    13    10    12    1
    14    12    13    1
    15    13    14    1
    16     4     5   ar
    17     5     6   ar
    18    19    20    1
    19    20    21    1
    20    21    22    1
    21    22    23    1
    22    23    24    1
    23    24    25    1
    24    25    26    1
    25     6     1   ar
    26    25    21    1
    27    14     7    1
    28    14    12    1
    29     9    15    1
