@<TRIPOS>MOLECULE
*****
 40 44 0 0 0
SMALL
GASTEIGER

@<TRIPOS>ATOM
      1 C          62.1614   86.9861   10.7683 C.3     1  UNL1        0.1605
      2 F          63.2757   81.9254   10.3844 F       1  UNL1       -0.2041
      3 C          63.2640   83.1961   11.1813 C.ar    1  UNL1        0.1430
      4 C          63.7978   83.2073   12.5830 C.ar    1  UNL1        0.0667
      5 C          63.7861   84.4781   13.3799 C.ar    1  UNL1        0.1462
      6 C          63.2406   85.7377   12.7750 C.ar    1  UNL1        0.0363
      7 C          62.7068   85.7265   11.3732 C.ar    1  UNL1        0.0190
      8 C          62.7185   84.4557   10.5763 C.ar    1  UNL1        0.0289
      9 O          64.3199   84.4892   14.7817 O.3     1  UNL1       -0.4263
     10 C          63.7820   85.4698   15.7812 C.3     1  UNL1        0.4723
     11 F          64.8878   86.4243   15.4399 F       1  UNL1       -0.1579
     12 F          62.6764   84.5155   16.1226 F       1  UNL1       -0.1579
     13 C          63.2442   86.4504   16.7808 C.3     1  UNL1        0.4202
     14 F          63.4310   87.9227   16.5625 F       1  UNL1       -0.1876
     15 F          62.5195   85.9588   17.9987 F       1  UNL1       -0.1876
     16 C          62.0004   86.2844    9.4523 C.ar    1  UNL1        0.0937
     17 C          63.2047   85.7512    8.7344 C.ar    1  UNL1        0.0190
     18 C          63.0438   85.0495    7.4185 C.ar    1  UNL1        0.0143
     19 C          61.6785   84.8809    6.8204 C.ar    1  UNL1        0.0768
     20 CL         61.5176   84.1792    5.5045 Cl      1  UNL1       -0.0806
     21 C          60.4742   85.4140    7.5384 C.ar    1  UNL1        0.1099
     22 N          60.6352   86.1158    8.8543 N.ar    1  UNL1       -0.2439
     23 N          62.3224   87.6877   12.0842 N.pl3   1  UNL1       -0.2174
     24 H          61.8875   87.3274   12.8907 H       1  UNL1        0.2460
     25 C          63.1459   88.9384   12.1715 C.cat   1  UNL1        0.4203
     26 N          63.8870   89.4234   13.3821 N.2     1  UNL1       -0.0679
     27 C          64.5721   90.7085   13.0222 C.2     1  UNL1        0.1887
     28 C          65.4441   91.6370   13.8142 C.2     1  UNL1        0.0395
     29 C          65.9985   92.8747   13.1733 C.2     1  UNL1       -0.0010
     30 C          65.6808   93.1839   11.7403 C.2     1  UNL1       -0.0181
     31 C          64.8087   92.2553   10.9482 C.3     1  UNL1        0.0932
     32 C          64.2543   91.0176   11.5892 C.2     1  UNL1        0.1744
     33 N          63.3729   89.9237   11.0634 N.2     1  UNL1       -0.0718
     34 C          61.6159   88.2457   10.1634 C.3     1  UNL1        0.0705
     35 C          60.4948   88.9779   10.8394 C.ar    1  UNL1       -0.0184
     36 C          59.5744   88.2457   11.7704 C.ar    1  UNL1       -0.0041
     37 C          58.4533   88.9779   12.4463 C.ar    1  UNL1       -0.0003
     38 C          58.2525   90.4424   12.1913 C.ar    1  UNL1       -0.0000
     39 C          59.1729   91.1746   11.2603 C.ar    1  UNL1       -0.0003
     40 C          60.2940   90.4424   10.5844 C.ar    1  UNL1       -0.0041
@<TRIPOS>BOND
     1     2     3    1
     2     3     4   ar
     3     4     5   ar
     4     5     9    1
     5     9    10    1
     6    10    11    1
     7    10    12    1
     8    10    13    1
     9    13    14    1
    10    13    15    1
    11     5     6   ar
    12     6     7   ar
    13     7     1    1
    14     1    34    1
    15    34    35    1
    16    35    36   ar
    17    36    37   ar
    18    37    38   ar
    19    38    39   ar
    20    39    40   ar
    21     1    23    1
    22    23    25    1
    23    25    26    2
    24    26    27    1
    25    27    28    2
    26    28    29    1
    27    29    30    2
    28    30    31    1
    29    31    32    1
    30    32    33    2
    31     1    16    1
    32    16    17   ar
    33    17    18   ar
    34    18    19   ar
    35    19    20    1
    36    19    21   ar
    37    21    22   ar
    38     7     8   ar
    39     8     3   ar
    40    40    35   ar
    41    33    25    1
    42    22    16   ar
    43    32    27    1
    44    23    24    1
@<TRIPOS>MOLECULE
*****
 40 44 0 0 0
SMALL
GASTEIGER

@<TRIPOS>ATOM
      1 C          63.6304   89.9288   12.8110 C.3     1  UNL1        0.1605
      2 F          58.4467   89.6943   13.0833 F       1  UNL1       -0.2041
      3 C          59.7104   89.6109   12.2795 C.ar    1  UNL1        0.1430
      4 C          59.6460   89.3270   10.8080 C.ar    1  UNL1        0.0667
      5 C          60.9097   89.2436   10.0042 C.ar    1  UNL1        0.1462
      6 C          62.2378   89.4442   10.6719 C.ar    1  UNL1        0.0363
      7 C          62.3023   89.7282   12.1434 C.ar    1  UNL1        0.0190
      8 C          61.0386   89.8115   12.9472 C.ar    1  UNL1        0.0289
      9 O          60.8452   88.9597    8.5327 O.3     1  UNL1       -0.4263
     10 C          60.2255   87.6852    8.0413 C.3     1  UNL1        0.4723
     11 F          61.4058   86.9138    8.5532 F       1  UNL1       -0.1579
     12 F          59.0453   88.4564    7.5293 F       1  UNL1       -0.1579
     13 C          59.6058   86.4107    7.5498 C.3     1  UNL1        0.4202
     14 F          58.1173   86.2320    7.6009 F       1  UNL1       -0.1876
     15 F          60.4745   85.3147    7.0073 F       1  UNL1       -0.1876
     16 C          63.6815   88.4680   13.1481 C.ar    1  UNL1        0.0937
     17 C          64.3459   88.0132   14.4137 C.ar    1  UNL1        0.0190
     18 C          64.3970   86.5525   14.7509 C.ar    1  UNL1        0.0143
     19 C          63.7838   85.5465   13.8224 C.ar    1  UNL1        0.0768
     20 CL         63.8349   84.0858   14.1595 Cl      1  UNL1       -0.0806
     21 C          63.1194   86.0013   12.5568 C.ar    1  UNL1        0.1099
     22 N          63.0683   87.4621   12.2196 N.ar    1  UNL1       -0.2439
     23 N          63.5793   91.3895   12.4739 N.pl3   1  UNL1       -0.2174
     24 H          62.8202   91.9383   12.7769 H       1  UNL1        0.2460
     25 C          64.6847   92.0140   11.6751 C.cat   1  UNL1        0.4203
     26 N          65.9651   91.3462   11.2693 N.2     1  UNL1       -0.0679
     27 C          66.7756   92.3355   10.4852 C.2     1  UNL1        0.1887
     28 C          68.1226   92.2368    9.8329 C.2     1  UNL1        0.0395
     29 C          68.6902   93.4171    9.1017 C.2     1  UNL1       -0.0010
     30 C          67.9106   94.6962    9.0228 C.2     1  UNL1       -0.0181
     31 C          66.5635   94.7949    9.6752 C.3     1  UNL1        0.0932
     32 C          65.9959   93.6146   10.4064 C.2     1  UNL1        0.1744
     33 N          64.7037   93.4159   11.1418 N.2     1  UNL1       -0.0718
     34 C          64.9586   90.1294   13.4786 C.3     1  UNL1        0.0705
     35 C          65.0621   90.9989   14.6966 C.ar    1  UNL1       -0.0184
     36 C          66.2983   91.8149   14.9327 C.ar    1  UNL1       -0.0041
     37 C          66.4019   92.6843   16.1506 C.ar    1  UNL1       -0.0003
     38 C          65.2691   92.7378   17.1324 C.ar    1  UNL1       -0.0000
     39 C          64.0328   91.9218   16.8964 C.ar    1  UNL1       -0.0003
     40 C          63.9293   91.0523   15.6784 C.ar    1  UNL1       -0.0041
@<TRIPOS>BOND
     1     2     3    1
     2     3     4   ar
     3     4     5   ar
     4     5     9    1
     5     9    10    1
     6    10    11    1
     7    10    12    1
     8    10    13    1
     9    13    14    1
    10    13    15    1
    11     5     6   ar
    12     6     7   ar
    13     7     1    1
    14     1    34    1
    15    34    35    1
    16    35    36   ar
    17    36    37   ar
    18    37    38   ar
    19    38    39   ar
    20    39    40   ar
    21     1    23    1
    22    23    25    1
    23    25    26    2
    24    26    27    1
    25    27    28    2
    26    28    29    1
    27    29    30    2
    28    30    31    1
    29    31    32    1
    30    32    33    2
    31     1    16    1
    32    16    17   ar
    33    17    18   ar
    34    18    19   ar
    35    19    20    1
    36    19    21   ar
    37    21    22   ar
    38     7     8   ar
    39     8     3   ar
    40    40    35   ar
    41    33    25    1
    42    22    16   ar
    43    32    27    1
    44    23    24    1
@<TRIPOS>MOLECULE
*****
 40 44 0 0 0
SMALL
GASTEIGER

@<TRIPOS>ATOM
      1 C          63.4267   90.5073   14.2589 C.3     1  UNL1        0.1605
      2 F          62.6731   87.7636   18.6068 F       1  UNL1       -0.2041
      3 C          63.1996   87.8585   17.2055 C.ar    1  UNL1        0.1430
      4 C          63.8756   86.6763   16.5767 C.ar    1  UNL1        0.0667
      5 C          64.4021   86.7711   15.1753 C.ar    1  UNL1        0.1462
      6 C          64.2524   88.0481   14.4027 C.ar    1  UNL1        0.0363
      7 C          63.5763   89.2303   15.0315 C.ar    1  UNL1        0.0190
      8 C          63.0499   89.1355   16.4329 C.ar    1  UNL1        0.0289
      9 O          65.0782   85.5889   14.5465 O.3     1  UNL1       -0.4263
     10 C          64.2638   84.4164   14.0861 C.3     1  UNL1        0.4723
     11 F          63.8619   85.1779   12.8578 F       1  UNL1       -0.1579
     12 F          64.6657   83.6549   15.3143 F       1  UNL1       -0.1579
     13 C          63.4494   83.2440   13.6256 C.3     1  UNL1        0.4202
     14 F          62.4014   83.4276   12.5683 F       1  UNL1       -0.1876
     15 F          63.6830   81.8878   14.2226 F       1  UNL1       -0.1876
     16 C          64.7853   90.9452   14.7197 C.ar    1  UNL1        0.0937
     17 C          66.0150   90.3292   14.1212 C.ar    1  UNL1        0.0190
     18 C          67.3736   90.7671   14.5820 C.ar    1  UNL1        0.0143
     19 C          67.5026   91.8212   15.6414 C.ar    1  UNL1        0.0768
     20 CL         68.8612   92.2591   16.1022 Cl      1  UNL1       -0.0806
     21 C          66.2729   92.4373   16.2400 C.ar    1  UNL1        0.1099
     22 N          64.9142   91.9993   15.7791 N.ar    1  UNL1       -0.2439
     23 N          62.0681   90.0692   13.7981 N.pl3   1  UNL1       -0.2174
     24 H          61.2700   90.3067   14.3232 H       1  UNL1        0.2460
     25 C          61.9257   89.2695   12.5371 C.cat   1  UNL1        0.4203
     26 N          61.0198   89.5922   11.3859 N.2     1  UNL1       -0.0679
     27 C          61.1983   88.5287   10.3432 C.2     1  UNL1        0.1887
     28 C          60.5669   88.3261    8.9978 C.2     1  UNL1        0.0395
     29 C          60.9517   87.1435    8.1591 C.2     1  UNL1       -0.0010
     30 C          61.9679   86.1635    8.6658 C.2     1  UNL1       -0.0181
     31 C          62.5994   86.3661   10.0113 C.3     1  UNL1        0.0932
     32 C          62.2147   87.5487   10.8500 C.2     1  UNL1        0.1744
     33 N          62.6642   88.0065   12.2058 N.2     1  UNL1       -0.0718
     34 C          63.2771   91.7842   13.4863 C.3     1  UNL1        0.0705
     35 C          64.2682   92.1337   12.4159 C.ar    1  UNL1       -0.0184
     36 C          64.1340   91.5376   11.0460 C.ar    1  UNL1       -0.0041
     37 C          65.1250   91.8871    9.9756 C.ar    1  UNL1       -0.0003
     38 C          66.2502   92.8328   10.2751 C.ar    1  UNL1       -0.0000
     39 C          66.3844   93.4289   11.6450 C.ar    1  UNL1       -0.0003
     40 C          65.3933   93.0794   12.7154 C.ar    1  UNL1       -0.0041
@<TRIPOS>BOND
     1     2     3    1
     2     3     4   ar
     3     4     5   ar
     4     5     9    1
     5     9    10    1
     6    10    11    1
     7    10    12    1
     8    10    13    1
     9    13    14    1
    10    13    15    1
    11     5     6   ar
    12     6     7   ar
    13     7     1    1
    14     1    34    1
    15    34    35    1
    16    35    36   ar
    17    36    37   ar
    18    37    38   ar
    19    38    39   ar
    20    39    40   ar
    21     1    23    1
    22    23    25    1
    23    25    26    2
    24    26    27    1
    25    27    28    2
    26    28    29    1
    27    29    30    2
    28    30    31    1
    29    31    32    1
    30    32    33    2
    31     1    16    1
    32    16    17   ar
    33    17    18   ar
    34    18    19   ar
    35    19    20    1
    36    19    21   ar
    37    21    22   ar
    38     7     8   ar
    39     8     3   ar
    40    40    35   ar
    41    33    25    1
    42    22    16   ar
    43    32    27    1
    44    23    24    1
@<TRIPOS>MOLECULE
*****
 40 44 0 0 0
SMALL
GASTEIGER

@<TRIPOS>ATOM
      1 C          63.9562   90.9819   14.0285 C.3     1  UNL1        0.1605
      2 F          62.8026   91.3162    8.9731 F       1  UNL1       -0.2041
      3 C          62.7419   90.5698   10.2728 C.ar    1  UNL1        0.1430
      4 C          62.0437   89.2442   10.3444 C.ar    1  UNL1        0.0667
      5 C          61.9830   88.4978   11.6441 C.ar    1  UNL1        0.1462
      6 C          62.6204   89.0770   12.8721 C.ar    1  UNL1        0.0363
      7 C          63.3187   90.4027   12.8005 C.ar    1  UNL1        0.0190
      8 C          63.3794   91.1491   11.5008 C.ar    1  UNL1        0.0289
      9 O          61.2847   87.1721   11.7158 O.3     1  UNL1       -0.4263
     10 C          61.9616   85.9388   11.1956 C.3     1  UNL1        0.4723
     11 F          62.9617   86.0172   12.3109 F       1  UNL1       -0.1579
     12 F          60.9617   85.8604   10.0803 F       1  UNL1       -0.1579
     13 C          62.6386   84.7055   10.6754 C.3     1  UNL1        0.4202
     14 F          63.4189   84.7614    9.3955 F       1  UNL1       -0.1876
     15 F          62.5353   83.4162   11.4350 F       1  UNL1       -0.1876
     16 C          63.8628   89.6471   14.7065 C.ar    1  UNL1        0.0937
     17 C          64.6233   88.4745   14.1620 C.ar    1  UNL1        0.0190
     18 C          64.5300   87.1398   14.8399 C.ar    1  UNL1        0.0143
     19 C          63.6761   86.9775   16.0625 C.ar    1  UNL1        0.0768
     20 CL         63.5828   85.6428   16.7404 Cl      1  UNL1       -0.0806
     21 C          62.9156   88.1501   16.6070 C.ar    1  UNL1        0.1099
     22 N          63.0089   89.4850   15.9290 N.ar    1  UNL1       -0.2439
     23 N          64.0495   92.3167   13.3505 N.pl3   1  UNL1       -0.2174
     24 H          63.3971   93.0230   13.5621 H       1  UNL1        0.2460
     25 C          65.1368   92.5753   12.3501 C.cat   1  UNL1        0.4203
     26 N          65.3429   93.8463   11.5807 N.2     1  UNL1       -0.0679
     27 C          66.5425   93.6648   10.6984 C.2     1  UNL1        0.1887
     28 C          67.2165   94.5803    9.7200 C.2     1  UNL1        0.0395
     29 C          68.4258   94.1126    8.9657 C.2     1  UNL1       -0.0010
     30 C          68.9609   92.7294    9.1898 C.2     1  UNL1       -0.0181
     31 C          68.2869   91.8138   10.1683 C.3     1  UNL1        0.0932
     32 C          67.0776   92.2815   10.9226 C.2     1  UNL1        0.1744
     33 N          66.2089   91.6082   11.9434 N.2     1  UNL1       -0.0718
     34 C          64.5936   91.5612   15.2565 C.3     1  UNL1        0.0705
     35 C          66.0355   91.9741   15.2294 C.ar    1  UNL1       -0.0184
     36 C          66.4484   93.2949   15.8083 C.ar    1  UNL1       -0.0041
     37 C          67.8901   93.7078   15.7812 C.ar    1  UNL1       -0.0003
     38 C          68.9191   92.7999   15.1753 C.ar    1  UNL1       -0.0000
     39 C          68.5062   91.4791   14.5964 C.ar    1  UNL1       -0.0003
     40 C          67.0643   91.0662   14.6235 C.ar    1  UNL1       -0.0041
@<TRIPOS>BOND
     1     2     3    1
     2     3     4   ar
     3     4     5   ar
     4     5     9    1
     5     9    10    1
     6    10    11    1
     7    10    12    1
     8    10    13    1
     9    13    14    1
    10    13    15    1
    11     5     6   ar
    12     6     7   ar
    13     7     1    1
    14     1    34    1
    15    34    35    1
    16    35    36   ar
    17    36    37   ar
    18    37    38   ar
    19    38    39   ar
    20    39    40   ar
    21     1    23    1
    22    23    25    1
    23    25    26    2
    24    26    27    1
    25    27    28    2
    26    28    29    1
    27    29    30    2
    28    30    31    1
    29    31    32    1
    30    32    33    2
    31     1    16    1
    32    16    17   ar
    33    17    18   ar
    34    18    19   ar
    35    19    20    1
    36    19    21   ar
    37    21    22   ar
    38     7     8   ar
    39     8     3   ar
    40    40    35   ar
    41    33    25    1
    42    22    16   ar
    43    32    27    1
    44    23    24    1
@<TRIPOS>MOLECULE
*****
 40 44 0 0 0
SMALL
GASTEIGER

@<TRIPOS>ATOM
      1 C          62.1546   88.1146   11.6945 C.3     1  UNL1        0.1605
      2 F          64.6985   92.4109   10.2556 F       1  UNL1       -0.2041
      3 C          64.3645   91.3874   11.3000 C.ar    1  UNL1        0.1430
      4 C          64.9683   91.4884   12.6693 C.ar    1  UNL1        0.0667
      5 C          64.6343   90.4649   13.7137 C.ar    1  UNL1        0.1462
      6 C          63.6964   89.3403   13.3888 C.ar    1  UNL1        0.0363
      7 C          63.0925   89.2392   12.0194 C.ar    1  UNL1        0.0190
      8 C          63.4265   90.2627   10.9750 C.ar    1  UNL1        0.0289
      9 O          65.2382   90.5660   15.0831 O.3     1  UNL1       -0.4263
     10 C          66.2416   91.6399   15.3829 C.3     1  UNL1        0.4723
     11 F          67.2960   90.8573   14.6577 F       1  UNL1       -0.1579
     12 F          65.1873   92.4226   16.1080 F       1  UNL1       -0.1579
     13 C          67.2449   92.7138   15.6826 C.3     1  UNL1        0.4202
     14 F          67.1777   94.0262   14.9593 F       1  UNL1       -0.1876
     15 F          68.3156   92.4754   16.7058 F       1  UNL1       -0.1876
     16 C          61.0074   89.0806   11.6626 C.ar    1  UNL1        0.0937
     17 C          60.9868   90.1872   10.6501 C.ar    1  UNL1        0.0190
     18 C          59.8397   91.1531   10.6181 C.ar    1  UNL1        0.0143
     19 C          58.7132   91.0126   11.5986 C.ar    1  UNL1        0.0768
     20 CL         57.5661   91.9786   11.5666 Cl      1  UNL1       -0.0806
     21 C          58.7339   89.9061   12.6111 C.ar    1  UNL1        0.1099
     22 N          59.8810   88.9400   12.6430 N.ar    1  UNL1       -0.2439
     23 N          63.3017   87.1487   11.7265 N.pl3   1  UNL1       -0.2174
     24 H          64.2004   87.4425   11.4521 H       1  UNL1        0.2460
     25 C          63.0796   85.7352   12.1765 C.cat   1  UNL1        0.4203
     26 N          63.1895   84.5093   11.3191 N.2     1  UNL1       -0.0679
     27 C          62.8863   83.3157   12.1757 C.2     1  UNL1        0.1887
     28 C          62.8426   81.8475   11.8721 C.2     1  UNL1        0.0395
     29 C          62.5016   80.8674   12.9552 C.2     1  UNL1       -0.0010
     30 C          62.2042   81.3556   14.3420 C.2     1  UNL1       -0.0181
     31 C          62.2479   82.8240   14.6457 C.3     1  UNL1        0.0932
     32 C          62.5890   83.8040   13.5625 C.2     1  UNL1        0.1744
     33 N          62.7084   85.2993   13.5630 N.2     1  UNL1       -0.0718
     34 C          61.2167   86.9900   11.3696 C.3     1  UNL1        0.0705
     35 C          60.7971   86.7498    9.9496 C.ar    1  UNL1       -0.0184
     36 C          61.7225   86.0440    9.0033 C.ar    1  UNL1       -0.0041
     37 C          61.3029   85.8038    7.5834 C.ar    1  UNL1       -0.0003
     38 C          59.9579   86.2694    7.1097 C.ar    1  UNL1       -0.0000
     39 C          59.0325   86.9752    8.0560 C.ar    1  UNL1       -0.0003
     40 C          59.4521   87.2154    9.4760 C.ar    1  UNL1       -0.0041
@<TRIPOS>BOND
     1     2     3    1
     2     3     4   ar
     3     4     5   ar
     4     5     9    1
     5     9    10    1
     6    10    11    1
     7    10    12    1
     8    10    13    1
     9    13    14    1
    10    13    15    1
    11     5     6   ar
    12     6     7   ar
    13     7     1    1
    14     1    34    1
    15    34    35    1
    16    35    36   ar
    17    36    37   ar
    18    37    38   ar
    19    38    39   ar
    20    39    40   ar
    21     1    23    1
    22    23    25    1
    23    25    26    2
    24    26    27    1
    25    27    28    2
    26    28    29    1
    27    29    30    2
    28    30    31    1
    29    31    32    1
    30    32    33    2
    31     1    16    1
    32    16    17   ar
    33    17    18   ar
    34    18    19   ar
    35    19    20    1
    36    19    21   ar
    37    21    22   ar
    38     7     8   ar
    39     8     3   ar
    40    40    35   ar
    41    33    25    1
    42    22    16   ar
    43    32    27    1
    44    23    24    1
@<TRIPOS>MOLECULE
*****
 40 44 0 0 0
SMALL
GASTEIGER

@<TRIPOS>ATOM
      1 C          62.2349   87.9967   11.8490 C.3     1  UNL1        0.1605
      2 F          65.5277   90.1523   15.2418 F       1  UNL1       -0.2041
      3 C          64.8026   90.1943   13.9294 C.ar    1  UNL1        0.1430
      4 C          64.9987   91.3560   13.0010 C.ar    1  UNL1        0.0667
      5 C          64.2735   91.3979   11.6886 C.ar    1  UNL1        0.1462
      6 C          63.3523   90.2782   11.3046 C.ar    1  UNL1        0.0363
      7 C          63.1561   89.1164   12.2330 C.ar    1  UNL1        0.0190
      8 C          63.8813   89.0745   13.5454 C.ar    1  UNL1        0.0289
      9 O          64.4697   92.5597   10.7601 O.3     1  UNL1       -0.4263
     10 C          65.8504   93.0810   10.4925 C.3     1  UNL1        0.4723
     11 F          65.4208   94.4475   10.9378 F       1  UNL1       -0.1579
     12 F          66.2800   91.7146   10.0471 F       1  UNL1       -0.1579
     13 C          67.2312   93.6024   10.2248 C.3     1  UNL1        0.4202
     14 F          67.4666   95.0796   10.1137 F       1  UNL1       -0.1876
     15 F          68.3766   92.6465   10.0683 F       1  UNL1       -0.1876
     16 C          61.0947   88.9670   11.7555 C.ar    1  UNL1        0.0937
     17 C          61.0679   89.9893   10.6582 C.ar    1  UNL1        0.0190
     18 C          59.9278   90.9595   10.5646 C.ar    1  UNL1        0.0143
     19 C          58.8144   90.9074   11.5685 C.ar    1  UNL1        0.0768
     20 CL         57.6742   91.8776   11.4750 Cl      1  UNL1       -0.0806
     21 C          58.8411   89.8851   12.6659 C.ar    1  UNL1        0.1099
     22 N          59.9813   88.9149   12.7594 N.ar    1  UNL1       -0.2439
     23 N          63.3750   87.0266   11.9426 N.pl3   1  UNL1       -0.2174
     24 H          64.2937   87.3271   11.7556 H       1  UNL1        0.2460
     25 C          63.1155   85.5985   12.3209 C.cat   1  UNL1        0.4203
     26 N          62.6452   85.1126   13.6598 N.2     1  UNL1       -0.0679
     27 C          62.5197   83.6192   13.5931 C.2     1  UNL1        0.1887
     28 C          62.0986   82.6009   14.6108 C.2     1  UNL1        0.0395
     29 C          62.0702   81.1457   14.2483 C.2     1  UNL1       -0.0010
     30 C          62.4628   80.7087   12.8682 C.2     1  UNL1       -0.0181
     31 C          62.8840   81.7270   11.8504 C.3     1  UNL1        0.0932
     32 C          62.9124   83.1823   12.2129 C.2     1  UNL1        0.1744
     33 N          63.2806   84.4055   11.4266 N.2     1  UNL1       -0.0718
     34 C          61.3136   86.8770   11.4651 C.3     1  UNL1        0.0705
     35 C          60.9029   86.7013   10.0331 C.ar    1  UNL1       -0.0184
     36 C          61.8341   86.0385    9.0617 C.ar    1  UNL1       -0.0041
     37 C          61.4234   85.8627    7.6298 C.ar    1  UNL1       -0.0003
     38 C          60.0815   86.3498    7.1692 C.ar    1  UNL1       -0.0000
     39 C          59.1503   87.0126    8.1406 C.ar    1  UNL1       -0.0003
     40 C          59.5610   87.1883    9.5726 C.ar    1  UNL1       -0.0041
@<TRIPOS>BOND
     1     2     3    1
     2     3     4   ar
     3     4     5   ar
     4     5     9    1
     5     9    10    1
     6    10    11    1
     7    10    12    1
     8    10    13    1
     9    13    14    1
    10    13    15    1
    11     5     6   ar
    12     6     7   ar
    13     7     1    1
    14     1    34    1
    15    34    35    1
    16    35    36   ar
    17    36    37   ar
    18    37    38   ar
    19    38    39   ar
    20    39    40   ar
    21     1    23    1
    22    23    25    1
    23    25    26    2
    24    26    27    1
    25    27    28    2
    26    28    29    1
    27    29    30    2
    28    30    31    1
    29    31    32    1
    30    32    33    2
    31     1    16    1
    32    16    17   ar
    33    17    18   ar
    34    18    19   ar
    35    19    20    1
    36    19    21   ar
    37    21    22   ar
    38     7     8   ar
    39     8     3   ar
    40    40    35   ar
    41    33    25    1
    42    22    16   ar
    43    32    27    1
    44    23    24    1
@<TRIPOS>MOLECULE
*****
 40 44 0 0 0
SMALL
GASTEIGER

@<TRIPOS>ATOM
      1 C          63.0720   88.9658   12.7778 C.3     1  UNL1        0.1605
      2 F          58.7462   91.6896   11.8461 F       1  UNL1       -0.2041
      3 C          59.8174   90.7515   11.3745 C.ar    1  UNL1        0.1430
      4 C          59.7970   90.2371    9.9657 C.ar    1  UNL1        0.0667
      5 C          60.8683   89.2990    9.4941 C.ar    1  UNL1        0.1462
      6 C          61.9599   88.8752   10.4315 C.ar    1  UNL1        0.0363
      7 C          61.9803   89.3896   11.8405 C.ar    1  UNL1        0.0190
      8 C          60.9091   90.3277   12.3120 C.ar    1  UNL1        0.0289
      9 O          60.8478   88.7846    8.0852 O.3     1  UNL1       -0.4263
     10 C          60.1615   87.4887    7.7697 C.3     1  UNL1        0.4723
     11 F          58.9196   88.2390    7.3891 F       1  UNL1       -0.1579
     12 F          61.4034   86.7384    8.1504 F       1  UNL1       -0.1579
     13 C          59.4752   86.1928    7.4543 C.3     1  UNL1        0.4202
     14 F          57.9900   86.0699    7.6243 F       1  UNL1       -0.1876
     15 F          60.2742   85.0197    6.9689 F       1  UNL1       -0.1876
     16 C          63.8336   90.2175   12.4566 C.ar    1  UNL1        0.0937
     17 C          64.6790   90.8719   13.5089 C.ar    1  UNL1        0.0190
     18 C          65.4406   92.1236   13.1877 C.ar    1  UNL1        0.0143
     19 C          65.3569   92.7210   11.8143 C.ar    1  UNL1        0.0768
     20 CL         66.1186   93.9726   11.4932 Cl      1  UNL1       -0.0806
     21 C          64.5116   92.0666   10.7621 C.ar    1  UNL1        0.1099
     22 N          63.7499   90.8148   11.0833 N.ar    1  UNL1       -0.2439
     23 N          62.3103   87.7141   13.0990 N.pl3   1  UNL1       -0.2174
     24 H          61.5382   87.7505   13.7087 H       1  UNL1        0.2460
     25 C          62.7251   86.4071   12.4912 C.cat   1  UNL1        0.4203
     26 N          63.0892   85.1612   13.2430 N.2     1  UNL1       -0.0679
     27 C          63.4378   84.1004   12.2412 C.2     1  UNL1        0.1887
     28 C          63.8713   82.6733   12.4003 C.2     1  UNL1        0.0395
     29 C          64.1562   81.8365   11.1884 C.2     1  UNL1       -0.0010
     30 C          64.0075   82.4268    9.8175 C.2     1  UNL1       -0.0181
     31 C          63.5740   83.8540    9.6584 C.3     1  UNL1        0.0932
     32 C          63.2891   84.6908   10.8703 C.2     1  UNL1        0.1744
     33 N          62.8486   86.1163   11.0247 N.2     1  UNL1       -0.0718
     34 C          64.1636   88.5420   13.7152 C.3     1  UNL1        0.0705
     35 C          63.8204   88.0176   15.0780 C.ar    1  UNL1       -0.0184
     36 C          63.2318   88.9352   16.1084 C.ar    1  UNL1       -0.0041
     37 C          62.8886   88.4108   17.4712 C.ar    1  UNL1       -0.0003
     38 C          63.1339   86.9687   17.8036 C.ar    1  UNL1       -0.0000
     39 C          63.7225   86.0512   16.7732 C.ar    1  UNL1       -0.0003
     40 C          64.0657   86.5756   15.4104 C.ar    1  UNL1       -0.0041
@<TRIPOS>BOND
     1     2     3    1
     2     3     4   ar
     3     4     5   ar
     4     5     9    1
     5     9    10    1
     6    10    11    1
     7    10    12    1
     8    10    13    1
     9    13    14    1
    10    13    15    1
    11     5     6   ar
    12     6     7   ar
    13     7     1    1
    14     1    34    1
    15    34    35    1
    16    35    36   ar
    17    36    37   ar
    18    37    38   ar
    19    38    39   ar
    20    39    40   ar
    21     1    23    1
    22    23    25    1
    23    25    26    2
    24    26    27    1
    25    27    28    2
    26    28    29    1
    27    29    30    2
    28    30    31    1
    29    31    32    1
    30    32    33    2
    31     1    16    1
    32    16    17   ar
    33    17    18   ar
    34    18    19   ar
    35    19    20    1
    36    19    21   ar
    37    21    22   ar
    38     7     8   ar
    39     8     3   ar
    40    40    35   ar
    41    33    25    1
    42    22    16   ar
    43    32    27    1
    44    23    24    1
@<TRIPOS>MOLECULE
*****
 40 44 0 0 0
SMALL
GASTEIGER

@<TRIPOS>ATOM
      1 C          62.7549   88.8244   12.3266 C.3     1  UNL1        0.1605
      2 F          58.4998   91.7318   11.6622 F       1  UNL1       -0.2041
      3 C          59.5054   90.7585   11.1223 C.ar    1  UNL1        0.1430
      4 C          59.3891   90.2657    9.7104 C.ar    1  UNL1        0.0667
      5 C          60.3948   89.2924    9.1705 C.ar    1  UNL1        0.1462
      6 C          61.5167   88.8120   10.0426 C.ar    1  UNL1        0.0363
      7 C          61.6330   89.3048   11.4546 C.ar    1  UNL1        0.0190
      8 C          60.6273   90.2781   11.9945 C.ar    1  UNL1        0.0289
      9 O          60.2785   88.7996    7.7585 O.3     1  UNL1       -0.4263
     10 C          59.5073   89.5953    6.7476 C.3     1  UNL1        0.4723
     11 F          58.2714   88.8092    7.0716 F       1  UNL1       -0.1579
     12 F          60.7430   90.3814    6.4236 F       1  UNL1       -0.1579
     13 C          58.7360   90.3910    5.7366 C.3     1  UNL1        0.4202
     14 F          59.4629   91.2571    4.7510 F       1  UNL1       -0.1876
     15 F          57.2379   90.3205    5.7113 F       1  UNL1       -0.1876
     16 C          63.5419   90.0571   11.9931 C.ar    1  UNL1        0.0937
     17 C          63.4914   90.6268   10.6065 C.ar    1  UNL1        0.0190
     18 C          64.2784   91.8594   10.2730 C.ar    1  UNL1        0.0143
     19 C          65.1159   92.5224   11.3261 C.ar    1  UNL1        0.0768
     20 CL         65.9029   93.7550   10.9926 Cl      1  UNL1       -0.0806
     21 C          65.1664   91.9526   12.7128 C.ar    1  UNL1        0.1099
     22 N          64.3794   90.7200   13.0463 N.ar    1  UNL1       -0.2439
     23 N          61.9678   87.5918   12.6600 N.pl3   1  UNL1       -0.2174
     24 H          61.1392   87.6643   13.1867 H       1  UNL1        0.2460
     25 C          62.4433   86.2487   12.1911 C.cat   1  UNL1        0.4203
     26 N          62.5784   85.0168   13.0362 N.2     1  UNL1       -0.0679
     27 C          63.0859   83.9083   12.1621 C.2     1  UNL1        0.1887
     28 C          63.4084   82.4717   12.4486 C.2     1  UNL1        0.0395
     29 C          63.9095   81.5820   11.3498 C.2     1  UNL1       -0.0010
     30 C          64.0881   82.1289    9.9646 C.2     1  UNL1       -0.0181
     31 C          63.7656   83.5655    9.6780 C.3     1  UNL1        0.0932
     32 C          63.2644   84.4553   10.7768 C.2     1  UNL1        0.1744
     33 N          62.8674   85.9016   10.7947 N.2     1  UNL1       -0.0718
     34 C          63.8767   88.3440   13.1987 C.3     1  UNL1        0.0705
     35 C          63.6371   88.0908   14.6576 C.ar    1  UNL1       -0.0184
     36 C          63.8372   86.7159   15.2230 C.ar    1  UNL1       -0.0041
     37 C          63.5976   86.4627   16.6819 C.ar    1  UNL1       -0.0003
     38 C          63.1577   87.5844   17.5755 C.ar    1  UNL1       -0.0000
     39 C          62.9576   88.9592   17.0101 C.ar    1  UNL1       -0.0003
     40 C          63.1973   89.2124   15.5511 C.ar    1  UNL1       -0.0041
@<TRIPOS>BOND
     1     2     3    1
     2     3     4   ar
     3     4     5   ar
     4     5     9    1
     5     9    10    1
     6    10    11    1
     7    10    12    1
     8    10    13    1
     9    13    14    1
    10    13    15    1
    11     5     6   ar
    12     6     7   ar
    13     7     1    1
    14     1    34    1
    15    34    35    1
    16    35    36   ar
    17    36    37   ar
    18    37    38   ar
    19    38    39   ar
    20    39    40   ar
    21     1    23    1
    22    23    25    1
    23    25    26    2
    24    26    27    1
    25    27    28    2
    26    28    29    1
    27    29    30    2
    28    30    31    1
    29    31    32    1
    30    32    33    2
    31     1    16    1
    32    16    17   ar
    33    17    18   ar
    34    18    19   ar
    35    19    20    1
    36    19    21   ar
    37    21    22   ar
    38     7     8   ar
    39     8     3   ar
    40    40    35   ar
    41    33    25    1
    42    22    16   ar
    43    32    27    1
    44    23    24    1
@<TRIPOS>MOLECULE
*****
 40 44 0 0 0
SMALL
GASTEIGER

@<TRIPOS>ATOM
      1 C          58.9173   94.9557   -1.4006 C.3     1  UNL1        0.1605
      2 F          61.8912   90.8238   -0.3597 F       1  UNL1       -0.2041
      3 C          61.0042   91.9378    0.1117 C.ar    1  UNL1        0.1430
      4 C          60.7172   92.0998    1.5750 C.ar    1  UNL1        0.0667
      5 C          59.8302   93.2139    2.0465 C.ar    1  UNL1        0.1462
      6 C          59.2303   94.1658    1.0547 C.ar    1  UNL1        0.0363
      7 C          59.5173   94.0038   -0.4087 C.ar    1  UNL1        0.0190
      8 C          60.4042   92.8898   -0.8802 C.ar    1  UNL1        0.0289
      9 O          59.5432   93.3759    3.5099 O.3     1  UNL1       -0.4263
     10 C          59.2806   92.1689    4.3608 C.3     1  UNL1        0.4723
     11 F          60.7554   91.9996    4.5760 F       1  UNL1       -0.1579
     12 F          57.8058   92.3381    4.1457 F       1  UNL1       -0.1579
     13 C          59.0179   90.9619    5.2117 C.3     1  UNL1        0.4202
     14 F          60.1655   90.1682    5.7622 F       1  UNL1       -0.1876
     15 F          57.6076   90.5485    5.5122 F       1  UNL1       -0.1876
     16 C          58.1302   93.8305   -2.0043 C.ar    1  UNL1        0.0937
     17 C          58.3672   93.4300   -3.4303 C.ar    1  UNL1        0.0190
     18 C          57.5801   92.3049   -4.0340 C.ar    1  UNL1        0.0143
     19 C          56.5559   91.5802   -3.2118 C.ar    1  UNL1        0.0768
     20 CL         55.7688   90.4551   -3.8155 Cl      1  UNL1       -0.0806
     21 C          56.3189   91.9807   -1.7858 C.ar    1  UNL1        0.1099
     22 N          57.1061   93.1059   -1.1821 N.ar    1  UNL1       -0.2439
     23 N          59.7045   96.0808   -0.7969 N.pl3   1  UNL1       -0.2174
     24 H          59.2667   96.7141   -0.1833 H       1  UNL1        0.2460
     25 C          61.1586   96.2410   -1.1280 C.cat   1  UNL1        0.4203
     26 N          62.2673   96.4682   -0.1435 N.2     1  UNL1       -0.0679
     27 C          63.5534   96.5697   -0.9090 C.2     1  UNL1        0.1887
     28 C          64.9697   96.7907   -0.4670 C.2     1  UNL1        0.0395
     29 C          66.0721   96.8471   -1.4826 C.2     1  UNL1       -0.0010
     30 C          65.7583   96.6827   -2.9402 C.2     1  UNL1       -0.0181
     31 C          64.3420   96.4617   -3.3822 C.3     1  UNL1        0.0932
     32 C          63.2395   96.4053   -2.3666 C.2     1  UNL1        0.1744
     33 N          61.7595   96.2021   -2.5020 N.2     1  UNL1       -0.0718
     34 C          58.3174   95.9077   -2.3924 C.3     1  UNL1        0.0705
     35 C          56.8520   96.2234   -2.3373 C.ar    1  UNL1       -0.0184
     36 C          56.1876   96.4723   -1.0157 C.ar    1  UNL1       -0.0041
     37 C          54.7223   96.7880   -0.9605 C.ar    1  UNL1       -0.0003
     38 C          53.9213   96.8549   -2.2270 C.ar    1  UNL1       -0.0000
     39 C          54.5856   96.6060   -3.5486 C.ar    1  UNL1       -0.0003
     40 C          56.0510   96.2903   -3.6037 C.ar    1  UNL1       -0.0041
@<TRIPOS>BOND
     1     2     3    1
     2     3     4   ar
     3     4     5   ar
     4     5     9    1
     5     9    10    1
     6    10    11    1
     7    10    12    1
     8    10    13    1
     9    13    14    1
    10    13    15    1
    11     5     6   ar
    12     6     7   ar
    13     7     1    1
    14     1    34    1
    15    34    35    1
    16    35    36   ar
    17    36    37   ar
    18    37    38   ar
    19    38    39   ar
    20    39    40   ar
    21     1    23    1
    22    23    25    1
    23    25    26    2
    24    26    27    1
    25    27    28    2
    26    28    29    1
    27    29    30    2
    28    30    31    1
    29    31    32    1
    30    32    33    2
    31     1    16    1
    32    16    17   ar
    33    17    18   ar
    34    18    19   ar
    35    19    20    1
    36    19    21   ar
    37    21    22   ar
    38     7     8   ar
    39     8     3   ar
    40    40    35   ar
    41    33    25    1
    42    22    16   ar
    43    32    27    1
    44    23    24    1
