@<TRIPOS>MOLECULE
*****
 31 34 0 0 0
SMALL
GASTEIGER

@<TRIPOS>ATOM
      1 C          63.1244   91.1973    9.7308 C.3     1  UNL1        0.0285
      2 C          63.2364   90.8754   11.1916 C.2     1  UNL1       -0.0155
      3 C          62.2967   90.0106   11.9784 C.2     1  UNL1       -0.0059
      4 C          62.7874   89.9625   13.3951 C.2     1  UNL1        0.0895
      5 N          64.0302   90.7977   13.4838 N.2     1  UNL1       -0.2578
      6 C          64.3077   91.3619   12.1220 C.3     1  UNL1        0.1970
      7 C          65.4551   92.2557   11.7550 C.2     1  UNL1        0.2490
      8 O          65.9713   93.2579   12.7444 O.2     1  UNL1       -0.2726
      9 N          66.0862   92.1471   10.3986 N.am    1  UNL1       -0.2977
     10 H          65.7473   91.4893    9.7492 H       1  UNL1        0.1498
     11 C          67.2336   93.0409   10.0315 C.3     1  UNL1        0.1300
     12 C          68.5915   92.4541    9.7827 C.3     1  UNL1        0.0295
     13 C          67.0231   94.5214    9.9134 C.ar    1  UNL1        0.1524
     14 N          66.9390   95.3006    8.6345 N.ar    1  UNL1       -0.2065
     15 C          66.7236   96.7433    8.9842 C.ar    1  UNL1        0.2204
     16 N          66.6746   96.8556   10.4792 N.ar    1  UNL1       -0.1489
     17 N          66.8597   95.4824   11.0535 N.ar    1  UNL1       -0.2602
     18 H          66.8718   95.2522   12.0106 H       1  UNL1        0.1903
     19 C          61.0801   89.3157   11.4427 C.3     1  UNL1        0.0401
     20 C          60.0571   90.3955   11.6360 C.3     1  UNL1        0.0088
     21 C          59.6549   89.0796   11.0387 C.3     1  UNL1        0.0088
     22 C          61.6807   87.9946   11.0632 C.ar    1  UNL1        0.0001
     23 C          61.7782   87.6022    9.6188 C.ar    1  UNL1       -0.0010
     24 C          62.3788   86.2811    9.2394 C.ar    1  UNL1        0.0228
     25 C          62.8819   85.3524   10.3045 C.ar    1  UNL1        0.1526
     26 N          62.7844   85.7448   11.7490 N.ar    1  UNL1       -0.2402
     27 C          62.1839   87.0659   12.1283 C.ar    1  UNL1        0.0947
     28 C          63.4825   84.0312    9.9251 C.3     1  UNL1        0.4348
     29 F          64.0831   82.7101    9.5458 F       1  UNL1       -0.1644
     30 F          63.4901   84.4484    8.4843 F       1  UNL1       -0.1644
     31 F          63.4749   83.6141   11.3659 F       1  UNL1       -0.1644
@<TRIPOS>BOND
     1     1     2    1
     2     2     3    2
     3     3    19    1
     4    19    22    1
     5    22    23   ar
     6    23    24   ar
     7    24    25   ar
     8    25    28    1
     9    28    29    1
    10    28    30    1
    11    28    31    1
    12    25    26   ar
    13    26    27   ar
    14    19    20    1
    15    20    21    1
    16     3     4    1
    17     4     5    2
    18     5     6    1
    19     6     7    1
    20     7     8    2
    21     7     9   am
    22     9    11    1
    23    11    12    1
    24    11    13    1
    25    13    14   ar
    26    14    15   ar
    27    15    16   ar
    28    16    17   ar
    29     6     2    1
    30    17    13   ar
    31    21    19    1
    32    27    22   ar
    33     9    10    1
    34    17    18    1
@<TRIPOS>MOLECULE
*****
 31 34 0 0 0
SMALL
GASTEIGER

@<TRIPOS>ATOM
      1 C          64.6401   87.6010   14.7946 C.3     1  UNL1        0.0285
      2 C          63.8607   88.2547   13.6922 C.2     1  UNL1       -0.0155
      3 C          63.7531   89.7299   13.4434 C.2     1  UNL1       -0.0059
      4 C          62.8779   89.9348   12.2424 C.2     1  UNL1        0.0895
      5 N          62.4447   88.5861   11.7491 N.2     1  UNL1       -0.2578
      6 C          63.0520   87.5477   12.6451 C.3     1  UNL1        0.1970
      7 C          62.8808   86.0630   12.5166 C.2     1  UNL1        0.2490
      8 O          62.4381   85.4693   11.2123 O.2     1  UNL1       -0.2726
      9 N          63.1524   85.1723   13.6925 N.am    1  UNL1       -0.2977
     10 H          63.4429   85.5621   14.5486 H       1  UNL1        0.1498
     11 C          62.9812   83.6876   13.5640 C.3     1  UNL1        0.1300
     12 C          62.3576   82.9051   14.6816 C.3     1  UNL1        0.0295
     13 C          63.4335   82.9855   12.3180 C.ar    1  UNL1        0.1524
     14 N          62.7142   81.8656   11.6265 N.ar    1  UNL1       -0.2065
     15 C          63.5208   81.4681   10.4259 C.ar    1  UNL1        0.2204
     16 N          64.7386   82.3424   10.3755 N.ar    1  UNL1       -0.1489
     17 N          64.6847   83.2803   11.5449 N.ar    1  UNL1       -0.2602
     18 H          65.3531   83.9684   11.7661 H       1  UNL1        0.1903
     19 C          64.4060   90.8107   14.2531 C.3     1  UNL1        0.0401
     20 C          63.8249   90.5117   15.6033 C.3     1  UNL1        0.0088
     21 C          64.7783   91.6573   15.4341 C.3     1  UNL1        0.0088
     22 C          65.2138   91.4850   13.1841 C.ar    1  UNL1        0.0001
     23 C          64.5585   91.9070   11.9026 C.ar    1  UNL1       -0.0010
     24 C          65.3663   92.5813   10.8337 C.ar    1  UNL1        0.0228
     25 C          66.8296   92.8336   11.0463 C.ar    1  UNL1        0.1526
     26 N          67.4850   92.4116   12.3278 N.ar    1  UNL1       -0.2402
     27 C          66.6771   91.7373   13.3967 C.ar    1  UNL1        0.0947
     28 C          67.6375   93.5079    9.9773 C.3     1  UNL1        0.4348
     29 F          68.4453   94.1823    8.9084 F       1  UNL1       -0.1644
     30 F          68.1300   92.1716    9.5065 F       1  UNL1       -0.1644
     31 F          67.1449   94.8442   10.4481 F       1  UNL1       -0.1644
@<TRIPOS>BOND
     1     1     2    1
     2     2     3    2
     3     3    19    1
     4    19    22    1
     5    22    23   ar
     6    23    24   ar
     7    24    25   ar
     8    25    28    1
     9    28    29    1
    10    28    30    1
    11    28    31    1
    12    25    26   ar
    13    26    27   ar
    14    19    20    1
    15    20    21    1
    16     3     4    1
    17     4     5    2
    18     5     6    1
    19     6     7    1
    20     7     8    2
    21     7     9   am
    22     9    11    1
    23    11    12    1
    24    11    13    1
    25    13    14   ar
    26    14    15   ar
    27    15    16   ar
    28    16    17   ar
    29     6     2    1
    30    17    13   ar
    31    21    19    1
    32    27    22   ar
    33     9    10    1
    34    17    18    1
@<TRIPOS>MOLECULE
*****
 31 34 0 0 0
SMALL
GASTEIGER

@<TRIPOS>ATOM
      1 C          64.4247   87.2263   14.0154 C.3     1  UNL1        0.0285
      2 C          63.5186   88.0359   13.1357 C.2     1  UNL1       -0.0155
      3 C          63.3233   89.5216   13.2008 C.2     1  UNL1       -0.0059
      4 C          62.3327   89.9057   12.1419 C.2     1  UNL1        0.0895
      5 N          61.9158   88.6573   11.4224 N.2     1  UNL1       -0.2578
      6 C          62.6487   87.5016   12.0366 C.3     1  UNL1        0.1970
      7 C          62.5323   86.0641   11.6242 C.2     1  UNL1        0.2490
      8 O          61.3833   85.6203   10.7682 O.2     1  UNL1       -0.2726
      9 N          63.5648   85.0707   12.0677 N.am    1  UNL1       -0.2977
     10 H          64.3190   85.3621   12.6295 H       1  UNL1        0.1498
     11 C          63.4484   83.6332   11.6553 C.3     1  UNL1        0.1300
     12 C          63.8713   83.2111   10.2794 C.3     1  UNL1        0.0295
     13 C          62.9090   82.6178   12.6187 C.ar    1  UNL1        0.1524
     14 N          62.7358   81.1523   12.3500 N.ar    1  UNL1       -0.2065
     15 C          62.1680   80.5186   13.5853 C.ar    1  UNL1        0.2204
     16 N          61.9902   81.5924   14.6174 N.ar    1  UNL1       -0.1489
     17 N          62.4482   82.8899   14.0201 N.ar    1  UNL1       -0.2602
     18 H          62.4466   83.7661   14.4689 H       1  UNL1        0.1903
     19 C          63.9997   90.4589   14.1568 C.3     1  UNL1        0.0401
     20 C          63.3721   90.0149   15.4449 C.3     1  UNL1        0.0088
     21 C          64.3766   91.1289   15.4449 C.3     1  UNL1        0.0088
     22 C          64.8623   91.2283   13.2008 C.ar    1  UNL1        0.0001
     23 C          64.3327   91.6041   11.8487 C.ar    1  UNL1       -0.0010
     24 C          65.1952   92.3735   10.8927 C.ar    1  UNL1        0.0228
     25 C          66.5875   92.7670   11.2888 C.ar    1  UNL1        0.1526
     26 N          67.1171   92.3912   12.6409 N.ar    1  UNL1       -0.2402
     27 C          66.2545   91.6218   13.5969 C.ar    1  UNL1        0.0947
     28 C          67.4500   93.5365   10.3327 C.3     1  UNL1        0.4348
     29 F          68.3126   94.3059    9.3767 F       1  UNL1       -0.1644
     30 F          67.9809   92.2490    9.7755 F       1  UNL1       -0.1644
     31 F          66.9192   94.8239   10.8899 F       1  UNL1       -0.1644
@<TRIPOS>BOND
     1     1     2    1
     2     2     3    2
     3     3    19    1
     4    19    22    1
     5    22    23   ar
     6    23    24   ar
     7    24    25   ar
     8    25    28    1
     9    28    29    1
    10    28    30    1
    11    28    31    1
    12    25    26   ar
    13    26    27   ar
    14    19    20    1
    15    20    21    1
    16     3     4    1
    17     4     5    2
    18     5     6    1
    19     6     7    1
    20     7     8    2
    21     7     9   am
    22     9    11    1
    23    11    12    1
    24    11    13    1
    25    13    14   ar
    26    14    15   ar
    27    15    16   ar
    28    16    17   ar
    29     6     2    1
    30    17    13   ar
    31    21    19    1
    32    27    22   ar
    33     9    10    1
    34    17    18    1
@<TRIPOS>MOLECULE
*****
 31 34 0 0 0
SMALL
GASTEIGER

@<TRIPOS>ATOM
      1 C          63.4004   90.7675    9.8498 C.3     1  UNL1        0.0285
      2 C          62.7960   90.2268   11.1118 C.2     1  UNL1       -0.0155
      3 C          61.7142   89.1914   11.1980 C.2     1  UNL1       -0.0059
      4 C          61.4169   88.9513   12.6485 C.2     1  UNL1        0.0895
      5 N          62.3151   89.8384   13.4587 N.2     1  UNL1       -0.2578
      6 C          63.1674   90.6267   12.5090 C.3     1  UNL1        0.1970
      7 C          64.2083   91.6375   12.8896 C.2     1  UNL1        0.2490
      8 O          64.5014   91.9039   14.3363 O.2     1  UNL1       -0.2726
      9 N          64.9561   92.3818   11.8234 N.am    1  UNL1       -0.2977
     10 H          64.7637   92.2069   10.8738 H       1  UNL1        0.1498
     11 C          65.9971   93.3926   12.2040 C.3     1  UNL1        0.1300
     12 C          66.2080   94.6091   11.3520 C.3     1  UNL1        0.0295
     13 C          66.8270   93.1868   13.4364 C.ar    1  UNL1        0.1524
     14 N          68.0284   92.2963   13.5518 N.ar    1  UNL1       -0.2065
     15 C          68.5450   92.3946   14.9566 C.ar    1  UNL1        0.2204
     16 N          67.6629   93.3460   15.7094 N.ar    1  UNL1       -0.1489
     17 N          66.6010   93.8357   14.7699 N.ar    1  UNL1       -0.2602
     18 H          65.8820   94.4712   14.9898 H       1  UNL1        0.1903
     19 C          61.0467   88.5148   10.0375 C.3     1  UNL1        0.0401
     20 C          60.1904   89.6401    9.5371 C.3     1  UNL1        0.0088
     21 C          60.1624   88.3105    8.8432 C.3     1  UNL1        0.0088
     22 C          61.6713   87.1544   10.1349 C.ar    1  UNL1        0.0001
     23 C          62.4129   86.5839    8.9625 C.ar    1  UNL1       -0.0010
     24 C          63.0374   85.2236    9.0600 C.ar    1  UNL1        0.0228
     25 C          62.9203   84.4338   10.3298 C.ar    1  UNL1        0.1526
     26 N          62.1788   85.0043   11.5022 N.ar    1  UNL1       -0.2402
     27 C          61.5543   86.3646   11.4048 C.ar    1  UNL1        0.0947
     28 C          63.5449   83.0735   10.4272 C.3     1  UNL1        0.4348
     29 F          64.1695   81.7132   10.5246 F       1  UNL1       -0.1644
     30 F          62.5066   82.6686   11.4312 F       1  UNL1       -0.1644
     31 F          64.5832   83.4783    9.4233 F       1  UNL1       -0.1644
@<TRIPOS>BOND
     1     1     2    1
     2     2     3    2
     3     3    19    1
     4    19    22    1
     5    22    23   ar
     6    23    24   ar
     7    24    25   ar
     8    25    28    1
     9    28    29    1
    10    28    30    1
    11    28    31    1
    12    25    26   ar
    13    26    27   ar
    14    19    20    1
    15    20    21    1
    16     3     4    1
    17     4     5    2
    18     5     6    1
    19     6     7    1
    20     7     8    2
    21     7     9   am
    22     9    11    1
    23    11    12    1
    24    11    13    1
    25    13    14   ar
    26    14    15   ar
    27    15    16   ar
    28    16    17   ar
    29     6     2    1
    30    17    13   ar
    31    21    19    1
    32    27    22   ar
    33     9    10    1
    34    17    18    1
@<TRIPOS>MOLECULE
*****
 31 34 0 0 0
SMALL
GASTEIGER

@<TRIPOS>ATOM
      1 C          63.4626   90.7729    9.9031 C.3     1  UNL1        0.0285
      2 C          62.8444   90.2369   11.1604 C.2     1  UNL1       -0.0155
      3 C          61.7497   89.2144   11.2380 C.2     1  UNL1       -0.0059
      4 C          61.4411   88.9749   12.6863 C.2     1  UNL1        0.0895
      5 N          62.3451   89.8494   13.5036 N.2     1  UNL1       -0.2578
      6 C          63.2124   90.6294   12.5606 C.3     1  UNL1        0.1970
      7 C          64.2632   91.6267   12.9494 C.2     1  UNL1        0.2490
      8 O          64.5191   91.9202   14.3979 O.2     1  UNL1       -0.2726
      9 N          65.0580   92.3304   11.8896 N.am    1  UNL1       -0.2977
     10 H          64.8900   92.1376   10.9389 H       1  UNL1        0.1498
     11 C          66.1088   93.3277   12.2785 C.3     1  UNL1        0.1300
     12 C          66.8804   93.1462   13.5520 C.3     1  UNL1        0.0295
     13 C          66.3880   94.5065   11.3938 C.ar    1  UNL1        0.1524
     14 N          67.3291   94.5291   10.2261 N.ar    1  UNL1       -0.2065
     15 C          67.2977   95.9062    9.6322 C.ar    1  UNL1        0.2204
     16 N          66.3372   96.7346   10.4329 N.ar    1  UNL1       -0.1489
     17 N          65.7749   95.8695   11.5217 N.ar    1  UNL1       -0.2602
     18 H          65.1187   96.1475   12.2010 H       1  UNL1        0.1903
     19 C          61.0809   88.5483   10.0723 C.3     1  UNL1        0.0401
     20 C          60.2353   89.6826    9.5741 C.3     1  UNL1        0.0088
     21 C          60.1992   88.3564    8.8741 C.3     1  UNL1        0.0088
     22 C          61.6944   87.1826   10.1657 C.ar    1  UNL1        0.0001
     23 C          62.4094   86.5991    8.9832 C.ar    1  UNL1       -0.0010
     24 C          63.0228   85.2335    9.0766 C.ar    1  UNL1        0.0228
     25 C          62.9213   84.4514   10.3525 C.ar    1  UNL1        0.1526
     26 N          62.2063   85.0349   11.5350 N.ar    1  UNL1       -0.2402
     27 C          61.5929   86.4005   11.4416 C.ar    1  UNL1        0.0947
     28 C          63.5347   83.0857   10.4459 C.3     1  UNL1        0.4348
     29 F          64.1482   81.7201   10.5393 F       1  UNL1       -0.1644
     30 F          62.4478   82.6618   11.3887 F       1  UNL1       -0.1644
     31 F          64.6217   83.5096    9.5032 F       1  UNL1       -0.1644
@<TRIPOS>BOND
     1     1     2    1
     2     2     3    2
     3     3    19    1
     4    19    22    1
     5    22    23   ar
     6    23    24   ar
     7    24    25   ar
     8    25    28    1
     9    28    29    1
    10    28    30    1
    11    28    31    1
    12    25    26   ar
    13    26    27   ar
    14    19    20    1
    15    20    21    1
    16     3     4    1
    17     4     5    2
    18     5     6    1
    19     6     7    1
    20     7     8    2
    21     7     9   am
    22     9    11    1
    23    11    12    1
    24    11    13    1
    25    13    14   ar
    26    14    15   ar
    27    15    16   ar
    28    16    17   ar
    29     6     2    1
    30    17    13   ar
    31    21    19    1
    32    27    22   ar
    33     9    10    1
    34    17    18    1
@<TRIPOS>MOLECULE
*****
 31 34 0 0 0
SMALL
GASTEIGER

@<TRIPOS>ATOM
      1 C          62.5072   89.8643   13.7421 C.3     1  UNL1        0.0285
      2 C          62.8167   90.3014   12.3409 C.2     1  UNL1       -0.0155
      3 C          62.0844   89.8763   11.1028 C.2     1  UNL1       -0.0059
      4 C          62.7279   90.5525    9.9286 C.2     1  UNL1        0.0895
      5 N          63.8579   91.3955   10.4411 N.2     1  UNL1       -0.2578
      6 C          63.9127   91.2403   11.9320 C.3     1  UNL1        0.1970
      7 C          64.8917   91.9069   12.8525 C.2     1  UNL1        0.2490
      8 O          65.6049   93.1517   12.4145 O.2     1  UNL1       -0.2726
      9 N          65.1575   91.3287   14.2107 N.am    1  UNL1       -0.2977
     10 H          64.6893   90.5116   14.4981 H       1  UNL1        0.1498
     11 C          66.1365   91.9953   15.1312 C.3     1  UNL1        0.1300
     12 C          65.6764   92.5312   16.4546 C.3     1  UNL1        0.0295
     13 C          67.5754   92.1260   14.7283 C.ar    1  UNL1        0.1524
     14 N          68.6663   92.7527   15.5451 N.ar    1  UNL1       -0.2065
     15 C          69.9411   92.6669   14.7593 C.ar    1  UNL1        0.2204
     16 N          69.6382   91.9872   13.4570 N.ar    1  UNL1       -0.1489
     17 N          68.1760   91.6528   13.4377 N.ar    1  UNL1       -0.2602
     18 H          67.6951   91.2020   12.7065 H       1  UNL1        0.1903
     19 C          60.9142   88.9396   11.0482 C.3     1  UNL1        0.0401
     20 C          59.7945   89.9069   11.2942 C.3     1  UNL1        0.0088
     21 C          59.4962   88.4517   11.0857 C.3     1  UNL1        0.0088
     22 C          61.6276   87.6469   10.7833 C.ar    1  UNL1        0.0001
     23 C          61.9385   87.2369    9.3743 C.ar    1  UNL1       -0.0010
     24 C          62.6518   85.9442    9.1095 C.ar    1  UNL1        0.0228
     25 C          63.0542   85.0616   10.2536 C.ar    1  UNL1        0.1526
     26 N          62.7433   85.4716   11.6625 N.ar    1  UNL1       -0.2402
     27 C          62.0300   86.7642   11.9274 C.ar    1  UNL1        0.0947
     28 C          63.7676   83.7689    9.9887 C.3     1  UNL1        0.4348
     29 F          64.4809   82.4763    9.7237 F       1  UNL1       -0.1644
     30 F          64.1053   83.6566   11.4458 F       1  UNL1       -0.1644
     31 F          63.4299   83.8812    8.5315 F       1  UNL1       -0.1644
@<TRIPOS>BOND
     1     1     2    1
     2     2     3    2
     3     3    19    1
     4    19    22    1
     5    22    23   ar
     6    23    24   ar
     7    24    25   ar
     8    25    28    1
     9    28    29    1
    10    28    30    1
    11    28    31    1
    12    25    26   ar
    13    26    27   ar
    14    19    20    1
    15    20    21    1
    16     3     4    1
    17     4     5    2
    18     5     6    1
    19     6     7    1
    20     7     8    2
    21     7     9   am
    22     9    11    1
    23    11    12    1
    24    11    13    1
    25    13    14   ar
    26    14    15   ar
    27    15    16   ar
    28    16    17   ar
    29     6     2    1
    30    17    13   ar
    31    21    19    1
    32    27    22   ar
    33     9    10    1
    34    17    18    1
@<TRIPOS>MOLECULE
*****
 31 34 0 0 0
SMALL
GASTEIGER

@<TRIPOS>ATOM
      1 C          63.2462   90.0519   13.1224 C.3     1  UNL1        0.0285
      2 C          62.9597   90.4045   11.6927 C.2     1  UNL1       -0.0155
      3 C          61.8371   89.8621   10.8589 C.2     1  UNL1       -0.0059
      4 C          61.9292   90.4838    9.4968 C.2     1  UNL1        0.0895
      5 N          63.1088   91.4104    9.4891 N.2     1  UNL1       -0.2578
      6 C          63.7457   91.3614   10.8462 C.3     1  UNL1        0.1970
      7 C          64.9560   92.1336   11.2806 C.2     1  UNL1        0.2490
      8 O          66.1895   92.1370   10.4272 O.2     1  UNL1       -0.2726
      9 N          64.9327   92.9024   12.5683 N.am    1  UNL1       -0.2977
     10 H          64.1231   92.9002   13.1284 H       1  UNL1        0.1498
     11 C          66.1431   93.6747   13.0027 C.3     1  UNL1        0.1300
     12 C          66.5495   94.9126   12.2593 C.3     1  UNL1        0.0295
     13 C          66.9470   93.2091   14.1804 C.ar    1  UNL1        0.1524
     14 N          68.3837   92.7788   14.1526 N.ar    1  UNL1       -0.2065
     15 C          68.7798   92.3959   15.5477 C.ar    1  UNL1        0.2204
     16 N          67.5880   92.5895   16.4378 N.ar    1  UNL1       -0.1489
     17 N          66.4552   93.0921   15.5927 N.ar    1  UNL1       -0.2602
     18 H          65.5482   93.3074   15.9094 H       1  UNL1        0.1903
     19 C          60.8037   88.8719   11.3079 C.3     1  UNL1        0.0401
     20 C          59.7329   89.8095   11.7813 C.3     1  UNL1        0.0088
     21 C          59.5231   88.3267   11.8673 C.3     1  UNL1        0.0088
     22 C          61.5158   87.5904   10.9905 C.ar    1  UNL1        0.0001
     23 C          62.1025   86.7644   12.0966 C.ar    1  UNL1       -0.0010
     24 C          62.8145   85.4830   11.7791 C.ar    1  UNL1        0.0228
     25 C          62.9399   85.0275   10.3555 C.ar    1  UNL1        0.1526
     26 N          62.3532   85.8534    9.2493 N.ar    1  UNL1       -0.2402
     27 C          61.6412   87.1348    9.5668 C.ar    1  UNL1        0.0947
     28 C          63.6520   83.7459   10.0380 C.3     1  UNL1        0.4348
     29 F          64.3640   82.4645    9.7206 F       1  UNL1       -0.1644
     30 F          63.5318   84.0422    8.5725 F       1  UNL1       -0.1644
     31 F          63.7721   83.4497   11.5035 F       1  UNL1       -0.1644
@<TRIPOS>BOND
     1     1     2    1
     2     2     3    2
     3     3    19    1
     4    19    22    1
     5    22    23   ar
     6    23    24   ar
     7    24    25   ar
     8    25    28    1
     9    28    29    1
    10    28    30    1
    11    28    31    1
    12    25    26   ar
    13    26    27   ar
    14    19    20    1
    15    20    21    1
    16     3     4    1
    17     4     5    2
    18     5     6    1
    19     6     7    1
    20     7     8    2
    21     7     9   am
    22     9    11    1
    23    11    12    1
    24    11    13    1
    25    13    14   ar
    26    14    15   ar
    27    15    16   ar
    28    16    17   ar
    29     6     2    1
    30    17    13   ar
    31    21    19    1
    32    27    22   ar
    33     9    10    1
    34    17    18    1
@<TRIPOS>MOLECULE
*****
 31 34 0 0 0
SMALL
GASTEIGER

@<TRIPOS>ATOM
      1 C          61.9017   84.8859   12.7798 C.3     1  UNL1        0.0285
      2 C          62.7757   84.1659   11.7960 C.2     1  UNL1       -0.0155
      3 C          63.6044   82.9481   12.0792 C.2     1  UNL1       -0.0059
      4 C          64.3153   82.5670   10.8145 C.2     1  UNL1        0.0895
      5 N          63.9259   83.5492    9.7498 N.2     1  UNL1       -0.2578
      6 C          62.9744   84.5374   10.3564 C.3     1  UNL1        0.1970
      7 C          62.3340   85.6941    9.6478 C.2     1  UNL1        0.2490
      8 O          63.1028   86.4561    8.6095 O.2     1  UNL1       -0.2726
      9 N          60.9249   86.0885    9.9776 N.am    1  UNL1       -0.2977
     10 H          60.4204   85.5882   10.6591 H       1  UNL1        0.1498
     11 C          60.2845   87.2451    9.2690 C.3     1  UNL1        0.1300
     12 C          59.8658   87.1075    7.8351 C.3     1  UNL1        0.0295
     13 C          60.0628   88.5394    9.9942 C.ar    1  UNL1        0.1524
     14 N          59.7509   88.6900   11.4536 N.ar    1  UNL1       -0.2065
     15 C          59.6095   90.1538   11.7486 C.ar    1  UNL1        0.2204
     16 N          59.8341   90.9079   10.4715 N.ar    1  UNL1       -0.1489
     17 N          60.1143   89.9101    9.3872 N.ar    1  UNL1       -0.2602
     18 H          60.2994   90.1183    8.4429 H       1  UNL1        0.1903
     19 C          63.7046   82.2364   13.3958 C.3     1  UNL1        0.0401
     20 C          63.8562   80.8230   12.9169 C.3     1  UNL1        0.0088
     21 C          63.8455   81.1197   14.3873 C.3     1  UNL1        0.0088
     22 C          63.5879   83.4027   14.3318 C.ar    1  UNL1        0.0001
     23 C          64.6165   84.4940   14.3022 C.ar    1  UNL1       -0.0010
     24 C          64.4998   85.6603   15.2382 C.ar    1  UNL1        0.0228
     25 C          63.3544   85.7352   16.2039 C.ar    1  UNL1        0.1526
     26 N          62.3257   84.6439   16.2334 N.ar    1  UNL1       -0.2402
     27 C          62.4425   83.4777   15.2974 C.ar    1  UNL1        0.0947
     28 C          63.2376   86.9015   17.1399 C.3     1  UNL1        0.4348
     29 F          63.1209   88.0678   18.0759 F       1  UNL1       -0.1644
     30 F          62.6756   85.9973   18.1966 F       1  UNL1       -0.1644
     31 F          63.7996   87.8058   16.0833 F       1  UNL1       -0.1644
@<TRIPOS>BOND
     1     1     2    1
     2     2     3    2
     3     3    19    1
     4    19    22    1
     5    22    23   ar
     6    23    24   ar
     7    24    25   ar
     8    25    28    1
     9    28    29    1
    10    28    30    1
    11    28    31    1
    12    25    26   ar
    13    26    27   ar
    14    19    20    1
    15    20    21    1
    16     3     4    1
    17     4     5    2
    18     5     6    1
    19     6     7    1
    20     7     8    2
    21     7     9   am
    22     9    11    1
    23    11    12    1
    24    11    13    1
    25    13    14   ar
    26    14    15   ar
    27    15    16   ar
    28    16    17   ar
    29     6     2    1
    30    17    13   ar
    31    21    19    1
    32    27    22   ar
    33     9    10    1
    34    17    18    1
@<TRIPOS>MOLECULE
*****
 31 34 0 0 0
SMALL
GASTEIGER

@<TRIPOS>ATOM
      1 C          62.8016   89.8212   13.1372 C.3     1  UNL1        0.0285
      2 C          62.5971   90.2987   11.7300 C.2     1  UNL1       -0.0155
      3 C          61.5190   89.8427   10.7921 C.2     1  UNL1       -0.0059
      4 C          61.6904   90.5783    9.4961 C.2     1  UNL1        0.0895
      5 N          62.8744   91.4889    9.6331 N.2     1  UNL1       -0.2578
      6 C          63.4348   91.3162   11.0137 C.3     1  UNL1        0.1970
      7 C          64.6241   92.0347   11.5788 C.2     1  UNL1        0.2490
      8 O          64.7422   92.2399   13.0600 O.2     1  UNL1       -0.2726
      9 N          65.6952   92.5480   10.6627 N.am    1  UNL1       -0.2977
     10 H          65.6176   92.4133    9.6906 H       1  UNL1        0.1498
     11 C          66.8845   93.2665   11.2279 C.3     1  UNL1        0.1300
     12 C          67.7116   94.1557   10.3473 C.3     1  UNL1        0.0295
     13 C          67.2466   93.0958   12.6735 C.ar    1  UNL1        0.1524
     14 N          68.0857   91.9931   13.2480 N.ar    1  UNL1       -0.2065
     15 C          68.1908   92.2138   14.7279 C.ar    1  UNL1        0.2204
     16 N          67.4167   93.4528   15.0681 N.ar    1  UNL1       -0.1489
     17 N          66.8331   93.9980   13.7983 N.ar    1  UNL1       -0.2602
     18 H          66.2765   94.8060   13.7174 H       1  UNL1        0.1903
     19 C          60.4561   88.8290   11.0966 C.3     1  UNL1        0.0401
     20 C          59.7920   89.4914   12.2672 C.3     1  UNL1        0.0088
     21 C          59.2907   88.1676   11.7709 C.3     1  UNL1        0.0088
     22 C          60.7510   87.8145   10.0317 C.ar    1  UNL1        0.0001
     23 C          62.0318   87.0349   10.0727 C.ar    1  UNL1       -0.0010
     24 C          62.3267   86.0205    9.0079 C.ar    1  UNL1        0.0228
     25 C          61.3408   85.7857    7.9020 C.ar    1  UNL1        0.1526
     26 N          60.0600   86.5654    7.8610 N.ar    1  UNL1       -0.2402
     27 C          59.7652   87.5798    8.9259 C.ar    1  UNL1        0.0947
     28 C          61.6358   84.7713    6.8371 C.3     1  UNL1        0.4348
     29 F          61.9307   83.7568    5.7723 F       1  UNL1       -0.1644
     30 F          63.0994   84.8670    7.1512 F       1  UNL1       -0.1644
     31 F          60.1722   84.6755    6.5231 F       1  UNL1       -0.1644
@<TRIPOS>BOND
     1     1     2    1
     2     2     3    2
     3     3    19    1
     4    19    22    1
     5    22    23   ar
     6    23    24   ar
     7    24    25   ar
     8    25    28    1
     9    28    29    1
    10    28    30    1
    11    28    31    1
    12    25    26   ar
    13    26    27   ar
    14    19    20    1
    15    20    21    1
    16     3     4    1
    17     4     5    2
    18     5     6    1
    19     6     7    1
    20     7     8    2
    21     7     9   am
    22     9    11    1
    23    11    12    1
    24    11    13    1
    25    13    14   ar
    26    14    15   ar
    27    15    16   ar
    28    16    17   ar
    29     6     2    1
    30    17    13   ar
    31    21    19    1
    32    27    22   ar
    33     9    10    1
    34    17    18    1
