@<TRIPOS>MOLECULE
*****
 30 32 0 0 0
SMALL
GASTEIGER

@<TRIPOS>ATOM
      1 C          64.5592   90.9035   14.8524 C.3     1  UNL1        0.0732
      2 C          64.2621   91.5735   16.1612 C.3     1  UNL1        0.0960
      3 N          63.4173   90.6413   16.9780 N.am    1  UNL1       -0.3026
      4 C          63.1923   89.3950   16.1741 C.2     1  UNL1        0.2408
      5 O          62.4005   88.1971   16.6077 O.2     1  UNL1       -0.2733
      6 C          63.8980   89.5571   14.8604 C.3     1  UNL1        0.1555
      7 H          63.0713   90.8166   17.8829 H       1  UNL1        0.1495
      8 C          67.0047   92.6295   11.4923 C.ar    1  UNL1        0.1432
      9 C          67.6753   92.1954   12.7618 C.ar    1  UNL1        0.0663
     10 C          66.8602   91.6201   13.8818 C.ar    1  UNL1        0.1414
     11 F          67.5309   91.1860   15.1514 F       1  UNL1       -0.2043
     12 C          65.3744   91.4788   13.7324 C.ar    1  UNL1        0.0363
     13 C          64.7037   91.9129   12.4628 C.ar    1  UNL1        0.1414
     14 F          63.2178   91.7717   12.3133 F       1  UNL1       -0.2043
     15 C          65.5189   92.4883   11.3428 C.ar    1  UNL1        0.0663
     16 C          68.5452   92.2932    9.4274 C.3     1  UNL1        0.2525
     17 O          67.8198   93.2048   10.3722 O.3     1  UNL1       -0.4713
     18 N          63.9359   88.5497   13.7497 N.am    1  UNL1       -0.2821
     19 C          62.8938   88.5826   12.6714 C.2     1  UNL1        0.3048
     20 O          61.8137   89.6231   12.7036 O.2     1  UNL1       -0.2525
     21 N          62.9317   87.5751   11.5607 N.am    1  UNL1       -0.2683
     22 H          64.6447   87.8668   13.7286 H       1  UNL1        0.1514
     23 H          63.6405   86.8922   11.5395 H       1  UNL1        0.1564
     24 C          61.8896   87.6081   10.4824 C.ar    1  UNL1        0.0517
     25 C          61.3017   86.3275    9.9680 C.ar    1  UNL1        0.0170
     26 C          60.2596   86.3605    8.8896 C.ar    1  UNL1        0.0309
     27 C          59.8053   87.6740    8.3256 C.ar    1  UNL1        0.1402
     28 F          58.7631   87.7070    7.2472 F       1  UNL1       -0.2042
     29 C          60.3931   88.9546    8.8399 C.ar    1  UNL1        0.0309
     30 C          61.4352   88.9216    9.9183 C.ar    1  UNL1        0.0170
@<TRIPOS>BOND
     1    16    17    1
     2    17     8    1
     3     8     9   ar
     4     9    10   ar
     5    10    11    1
     6    10    12   ar
     7     1    12    1
     8     1     2    1
     9     2     3    1
    10     3     4   am
    11     4     5    2
    12     4     6    1
    13     6    18    1
    14    18    19   am
    15    19    20    2
    16    19    21   am
    17    21    24    1
    18    24    25   ar
    19    25    26   ar
    20    26    27   ar
    21    27    28    1
    22    27    29   ar
    23    29    30   ar
    24    12    13   ar
    25    13    14    1
    26    13    15   ar
    27    15     8   ar
    28     6     1    1
    29    30    24   ar
    30     3     7    1
    31    18    22    1
    32    21    23    1
@<TRIPOS>MOLECULE
*****
 30 32 0 0 0
SMALL
GASTEIGER

@<TRIPOS>ATOM
      1 C          64.5609   90.9056   14.8513 C.3     1  UNL1        0.0732
      2 C          64.2632   91.5766   16.1594 C.3     1  UNL1        0.0960
      3 N          63.4177   90.6451   16.9764 N.am    1  UNL1       -0.3026
      4 C          63.1928   89.3983   16.1732 C.2     1  UNL1        0.2408
      5 O          62.4005   88.2009   16.6071 O.2     1  UNL1       -0.2733
      6 C          63.8993   89.5594   14.8599 C.3     1  UNL1        0.1555
      7 H          63.0711   90.8211   17.8809 H       1  UNL1        0.1495
      8 C          67.0087   92.6287   11.4914 C.ar    1  UNL1        0.1432
      9 C          65.5230   92.4876   11.3411 C.ar    1  UNL1        0.0663
     10 C          64.7070   91.9132   12.4611 C.ar    1  UNL1        0.1414
     11 F          63.2212   91.7722   12.3107 F       1  UNL1       -0.2043
     12 C          65.3768   91.4799   13.7313 C.ar    1  UNL1        0.0363
     13 C          66.8625   91.6210   13.8816 C.ar    1  UNL1        0.1414
     14 F          67.5324   91.1877   15.1519 F       1  UNL1       -0.2043
     15 C          67.6785   92.1954   12.7616 C.ar    1  UNL1        0.0663
     16 C          68.5416   92.2904    9.4212 C.3     1  UNL1        0.2525
     17 O          67.8247   93.2030   10.3714 O.3     1  UNL1       -0.4713
     18 N          63.9376   88.5511   13.7499 N.am    1  UNL1       -0.2821
     19 C          62.8956   88.5829   12.6715 C.2     1  UNL1        0.3048
     20 O          61.8152   89.6231   12.7028 O.2     1  UNL1       -0.2525
     21 N          62.9339   87.5747   11.5615 N.am    1  UNL1       -0.2683
     22 H          64.6467   87.8685   13.7293 H       1  UNL1        0.1514
     23 H          63.6430   86.8920   11.5408 H       1  UNL1        0.1564
     24 C          61.8919   87.6066   10.4830 C.ar    1  UNL1        0.0517
     25 C          61.3054   86.3253    9.9687 C.ar    1  UNL1        0.0170
     26 C          60.2633   86.3572    8.8902 C.ar    1  UNL1        0.0309
     27 C          59.8077   87.6702    8.3261 C.ar    1  UNL1        0.1402
     28 F          58.7656   87.7021    7.2476 F       1  UNL1       -0.2042
     29 C          60.3942   88.9515    8.8404 C.ar    1  UNL1        0.0309
     30 C          61.4362   88.9196    9.9189 C.ar    1  UNL1        0.0170
@<TRIPOS>BOND
     1    16    17    1
     2    17     8    1
     3     8     9   ar
     4     9    10   ar
     5    10    11    1
     6    10    12   ar
     7     1    12    1
     8     1     2    1
     9     2     3    1
    10     3     4   am
    11     4     5    2
    12     4     6    1
    13     6    18    1
    14    18    19   am
    15    19    20    2
    16    19    21   am
    17    21    24    1
    18    24    25   ar
    19    25    26   ar
    20    26    27   ar
    21    27    28    1
    22    27    29   ar
    23    29    30   ar
    24    12    13   ar
    25    13    14    1
    26    13    15   ar
    27    15     8   ar
    28     6     1    1
    29    30    24   ar
    30     3     7    1
    31    18    22    1
    32    21    23    1
@<TRIPOS>MOLECULE
*****
 30 32 0 0 0
SMALL
GASTEIGER

@<TRIPOS>ATOM
      1 C          64.7154   91.1842   14.5944 C.3     1  UNL1        0.0732
      2 C          64.6732   91.8271   15.9490 C.3     1  UNL1        0.0960
      3 N          63.6592   91.0958   16.7778 N.am    1  UNL1       -0.3026
      4 C          63.0746   90.0010   15.9355 C.2     1  UNL1        0.2408
      5 O          62.0220   89.0232   16.3667 O.2     1  UNL1       -0.2733
      6 C          63.7274   90.0556   14.5861 C.3     1  UNL1        0.1555
      7 H          63.4194   91.2988   17.7109 H       1  UNL1        0.1495
      8 C          67.3443   92.4238   11.1590 C.ar    1  UNL1        0.1432
      9 C          67.9573   92.0544   12.4772 C.ar    1  UNL1        0.0663
     10 C          67.0810   91.6412   13.6224 C.ar    1  UNL1        0.1414
     11 F          67.6941   91.2719   14.9407 F       1  UNL1       -0.2043
     12 C          65.5917   91.5974   13.4493 C.ar    1  UNL1        0.0363
     13 C          64.9787   91.9668   12.1311 C.ar    1  UNL1        0.1414
     14 F          63.4893   91.9229   11.9579 F       1  UNL1       -0.2043
     15 C          65.8550   92.3799   10.9859 C.ar    1  UNL1        0.0663
     16 C          67.8759   94.0531    9.2064 C.3     1  UNL1        0.2525
     17 O          68.2207   92.8369   10.0139 O.3     1  UNL1       -0.4713
     18 N          63.4422   89.1421   13.4311 N.am    1  UNL1       -0.2821
     19 C          63.5448   87.6560   13.6070 C.2     1  UNL1        0.3048
     20 O          63.9327   87.0834   14.9381 O.2     1  UNL1       -0.2525
     21 N          63.2596   86.7425   12.4520 N.am    1  UNL1       -0.2683
     22 H          63.1876   89.5178   12.5574 H       1  UNL1        0.1514
     23 H          63.0050   87.1182   11.5784 H       1  UNL1        0.1564
     24 C          63.3623   85.2564   12.6281 C.ar    1  UNL1        0.0517
     25 C          62.6137   84.3386   11.7076 C.ar    1  UNL1        0.0170
     26 C          62.7164   82.8525   11.8837 C.ar    1  UNL1        0.0309
     27 C          63.5676   82.2841   12.9802 C.ar    1  UNL1        0.1402
     28 F          63.6703   80.7981   13.1562 F       1  UNL1       -0.2042
     29 C          64.3162   83.2020   13.9006 C.ar    1  UNL1        0.0309
     30 C          64.2135   84.6880   13.7246 C.ar    1  UNL1        0.0170
@<TRIPOS>BOND
     1    16    17    1
     2    17     8    1
     3     8     9   ar
     4     9    10   ar
     5    10    11    1
     6    10    12   ar
     7     1    12    1
     8     1     2    1
     9     2     3    1
    10     3     4   am
    11     4     5    2
    12     4     6    1
    13     6    18    1
    14    18    19   am
    15    19    20    2
    16    19    21   am
    17    21    24    1
    18    24    25   ar
    19    25    26   ar
    20    26    27   ar
    21    27    28    1
    22    27    29   ar
    23    29    30   ar
    24    12    13   ar
    25    13    14    1
    26    13    15   ar
    27    15     8   ar
    28     6     1    1
    29    30    24   ar
    30     3     7    1
    31    18    22    1
    32    21    23    1
@<TRIPOS>MOLECULE
*****
 30 32 0 0 0
SMALL
GASTEIGER

@<TRIPOS>ATOM
      1 C          64.7543   91.1903   14.7068 C.3     1  UNL1        0.0732
      2 C          64.6553   91.8315   16.0592 C.3     1  UNL1        0.0960
      3 N          63.5886   91.1164   16.8344 N.am    1  UNL1       -0.3026
      4 C          63.0284   90.0331   15.9610 C.2     1  UNL1        0.2408
      5 O          61.9391   89.0728   16.3366 O.2     1  UNL1       -0.2733
      6 C          63.7489   90.0788   14.6461 C.3     1  UNL1        0.1555
      7 H          63.3059   91.3219   17.7547 H       1  UNL1        0.1495
      8 C          67.5728   92.3904   11.4104 C.ar    1  UNL1        0.1432
      9 C          66.0917   92.4061   11.1737 C.ar    1  UNL1        0.0663
     10 C          65.1522   92.0061   12.2725 C.ar    1  UNL1        0.1414
     11 F          63.6711   92.0219   12.0356 F       1  UNL1       -0.2043
     12 C          65.6938   91.5903   13.6080 C.ar    1  UNL1        0.0363
     13 C          67.1749   91.5745   13.8448 C.ar    1  UNL1        0.1414
     14 F          67.7165   91.1587   15.1804 F       1  UNL1       -0.2043
     15 C          68.1144   91.9746   12.7460 C.ar    1  UNL1        0.0663
     16 C          68.4547   92.0932    8.9848 C.3     1  UNL1        0.2525
     17 O          68.5123   92.7904   10.3117 O.3     1  UNL1       -0.4713
     18 N          63.5064   89.1722   13.4760 N.am    1  UNL1       -0.2821
     19 C          63.5779   87.6844   13.6524 C.2     1  UNL1        0.3048
     20 O          63.8920   87.1031   14.9991 O.2     1  UNL1       -0.2525
     21 N          63.3354   86.7778   12.4823 N.am    1  UNL1       -0.2683
     22 H          63.3003   89.5537   12.5921 H       1  UNL1        0.1514
     23 H          63.1293   87.1593   11.5984 H       1  UNL1        0.1564
     24 C          63.4070   85.2899   12.6588 C.ar    1  UNL1        0.0517
     25 C          62.6388   84.3877   11.7391 C.ar    1  UNL1        0.0170
     26 C          62.7104   82.8999   11.9156 C.ar    1  UNL1        0.0309
     27 C          63.5501   82.3142   13.0119 C.ar    1  UNL1        0.1402
     28 F          63.6217   80.8263   13.1884 F       1  UNL1       -0.2042
     29 C          64.3183   83.2164   13.9316 C.ar    1  UNL1        0.0309
     30 C          64.2467   84.7042   13.7551 C.ar    1  UNL1        0.0170
@<TRIPOS>BOND
     1    16    17    1
     2    17     8    1
     3     8     9   ar
     4     9    10   ar
     5    10    11    1
     6    10    12   ar
     7     1    12    1
     8     1     2    1
     9     2     3    1
    10     3     4   am
    11     4     5    2
    12     4     6    1
    13     6    18    1
    14    18    19   am
    15    19    20    2
    16    19    21   am
    17    21    24    1
    18    24    25   ar
    19    25    26   ar
    20    26    27   ar
    21    27    28    1
    22    27    29   ar
    23    29    30   ar
    24    12    13   ar
    25    13    14    1
    26    13    15   ar
    27    15     8   ar
    28     6     1    1
    29    30    24   ar
    30     3     7    1
    31    18    22    1
    32    21    23    1
@<TRIPOS>MOLECULE
*****
 30 32 0 0 0
SMALL
GASTEIGER

@<TRIPOS>ATOM
      1 C          61.3449   86.8161    9.4828 C.3     1  UNL1        0.0732
      2 C          60.6857   86.9146    8.1390 C.3     1  UNL1        0.0960
      3 N          59.9855   88.2389    8.0621 N.am    1  UNL1       -0.3026
      4 C          60.2121   88.9589    9.3584 C.2     1  UNL1        0.2408
      5 O          59.6902   90.3194    9.7142 O.2     1  UNL1       -0.2733
      6 C          61.0522   88.0796   10.2363 C.3     1  UNL1        0.1555
      7 H          59.4681   88.5763    7.2955 H       1  UNL1        0.1495
      8 C          63.7742   83.3404   10.9888 C.ar    1  UNL1        0.1432
      9 C          62.8283   84.0500   11.9115 C.ar    1  UNL1        0.0663
     10 C          62.0185   85.2086   11.4095 C.ar    1  UNL1        0.1414
     11 F          61.0725   85.9183   12.3323 F       1  UNL1       -0.2043
     12 C          62.1547   85.6575    9.9848 C.ar    1  UNL1        0.0363
     13 C          63.1007   84.9478    9.0620 C.ar    1  UNL1        0.1414
     14 F          63.2369   85.3967    7.6372 F       1  UNL1       -0.2043
     15 C          63.9105   83.7893    9.5640 C.ar    1  UNL1        0.0663
     16 C          64.1854   81.4800   12.7550 C.3     1  UNL1        0.2525
     17 O          64.5840   82.1818   11.4908 O.3     1  UNL1       -0.4713
     18 N          61.5179   88.4064   11.6243 N.am    1  UNL1       -0.2821
     19 C          62.6419   89.3783   11.8289 C.2     1  UNL1        0.3048
     20 O          63.3002   90.0236   10.6456 O.2     1  UNL1       -0.2525
     21 N          63.1076   89.7051   13.2168 N.am    1  UNL1       -0.2683
     22 H          61.0859   87.9829   12.4009 H       1  UNL1        0.1514
     23 H          62.6755   89.2816   13.9935 H       1  UNL1        0.1564
     24 C          64.2315   90.6771   13.4214 C.ar    1  UNL1        0.0517
     25 C          64.4774   91.7620   12.4151 C.ar    1  UNL1        0.0170
     26 C          65.6014   92.7340   12.6197 C.ar    1  UNL1        0.0309
     27 C          66.4795   92.6212   13.8305 C.ar    1  UNL1        0.1402
     28 F          67.6035   93.5933   14.0351 F       1  UNL1       -0.2042
     29 C          66.2336   91.5364   14.8368 C.ar    1  UNL1        0.0309
     30 C          65.1096   90.5644   14.6322 C.ar    1  UNL1        0.0170
@<TRIPOS>BOND
     1    16    17    1
     2    17     8    1
     3     8     9   ar
     4     9    10   ar
     5    10    11    1
     6    10    12   ar
     7     1    12    1
     8     1     2    1
     9     2     3    1
    10     3     4   am
    11     4     5    2
    12     4     6    1
    13     6    18    1
    14    18    19   am
    15    19    20    2
    16    19    21   am
    17    21    24    1
    18    24    25   ar
    19    25    26   ar
    20    26    27   ar
    21    27    28    1
    22    27    29   ar
    23    29    30   ar
    24    12    13   ar
    25    13    14    1
    26    13    15   ar
    27    15     8   ar
    28     6     1    1
    29    30    24   ar
    30     3     7    1
    31    18    22    1
    32    21    23    1
@<TRIPOS>MOLECULE
*****
 30 32 0 0 0
SMALL
GASTEIGER

@<TRIPOS>ATOM
      1 C          61.3209   86.8330    9.4423 C.3     1  UNL1        0.0732
      2 C          60.6619   86.9345    8.0987 C.3     1  UNL1        0.0960
      3 N          59.9561   88.2561    8.0272 N.am    1  UNL1       -0.3026
      4 C          60.1789   88.9714    9.3267 C.2     1  UNL1        0.2408
      5 O          59.6509   90.3281    9.6882 O.2     1  UNL1       -0.2733
      6 C          61.0224   88.0919   10.2013 C.3     1  UNL1        0.1555
      7 H          59.4377   88.5947    7.2618 H       1  UNL1        0.1495
      8 C          63.7644   83.3612   10.9344 C.ar    1  UNL1        0.1432
      9 C          63.9060   83.8226    9.5142 C.ar    1  UNL1        0.0663
     10 C          63.0915   84.9799    9.0169 C.ar    1  UNL1        0.1414
     11 F          63.2331   85.4413    7.5966 F       1  UNL1       -0.2043
     12 C          62.1354   85.6757    9.9397 C.ar    1  UNL1        0.0363
     13 C          61.9938   85.2143   11.3599 C.ar    1  UNL1        0.1414
     14 F          61.0377   85.9102   12.2828 F       1  UNL1       -0.2043
     15 C          62.8083   84.0571   11.8573 C.ar    1  UNL1        0.0663
     16 C          64.1953   81.5088   12.7044 C.3     1  UNL1        0.2525
     17 O          64.5789   82.2040   11.4318 O.3     1  UNL1       -0.4713
     18 N          61.4859   88.4146   11.5909 N.am    1  UNL1       -0.2821
     19 C          62.6187   89.3753   11.7995 C.2     1  UNL1        0.3048
     20 O          63.2881   90.0135   10.6185 O.2     1  UNL1       -0.2525
     21 N          63.0823   89.6980   13.1891 N.am    1  UNL1       -0.2683
     22 H          61.0466   87.9958   12.3660 H       1  UNL1        0.1514
     23 H          62.6430   89.2792   13.9643 H       1  UNL1        0.1564
     24 C          64.2151   90.6588   13.3977 C.ar    1  UNL1        0.0517
     25 C          65.1075   90.5176   14.5950 C.ar    1  UNL1        0.0170
     26 C          66.2404   91.4784   14.8036 C.ar    1  UNL1        0.0309
     27 C          66.4809   92.5804   13.8149 C.ar    1  UNL1        0.1402
     28 F          67.6137   93.5412   14.0235 F       1  UNL1       -0.2042
     29 C          65.5884   92.7217   12.6176 C.ar    1  UNL1        0.0309
     30 C          64.4556   91.7609   12.4090 C.ar    1  UNL1        0.0170
@<TRIPOS>BOND
     1    16    17    1
     2    17     8    1
     3     8     9   ar
     4     9    10   ar
     5    10    11    1
     6    10    12   ar
     7     1    12    1
     8     1     2    1
     9     2     3    1
    10     3     4   am
    11     4     5    2
    12     4     6    1
    13     6    18    1
    14    18    19   am
    15    19    20    2
    16    19    21   am
    17    21    24    1
    18    24    25   ar
    19    25    26   ar
    20    26    27   ar
    21    27    28    1
    22    27    29   ar
    23    29    30   ar
    24    12    13   ar
    25    13    14    1
    26    13    15   ar
    27    15     8   ar
    28     6     1    1
    29    30    24   ar
    30     3     7    1
    31    18    22    1
    32    21    23    1
@<TRIPOS>MOLECULE
*****
 30 32 0 0 0
SMALL
GASTEIGER

@<TRIPOS>ATOM
      1 C          64.0120   85.7019   13.9284 C.3     1  UNL1        0.0732
      2 C          65.2263   84.8252   14.0112 C.3     1  UNL1        0.0960
      3 N          65.0001   83.6353   13.1264 N.am    1  UNL1       -0.3026
      4 C          63.6460   83.7766   12.4967 C.2     1  UNL1        0.2408
      5 O          63.0136   82.8103   11.5394 O.2     1  UNL1       -0.2733
      6 C          63.0353   85.0538   12.9924 C.3     1  UNL1        0.1555
      7 H          65.6298   82.8920   12.9839 H       1  UNL1        0.1495
      8 C          63.4056   89.5931   16.1058 C.ar    1  UNL1        0.1432
      9 C          63.4151   88.3010   16.8676 C.ar    1  UNL1        0.0663
     10 C          63.6172   87.0039   16.1418 C.ar    1  UNL1        0.1414
     11 F          63.6267   85.7117   16.9036 F       1  UNL1       -0.2043
     12 C          63.8099   86.9990   14.6542 C.ar    1  UNL1        0.0363
     13 C          63.8004   88.2911   13.8925 C.ar    1  UNL1        0.1414
     14 F          63.9930   88.2862   12.4049 F       1  UNL1       -0.2043
     15 C          63.5982   89.5881   14.6183 C.ar    1  UNL1        0.0663
     16 C          64.1885   92.0080   16.6583 C.3     1  UNL1        0.2525
     17 O          63.2035   90.8901   16.8316 O.3     1  UNL1       -0.4713
     18 N          61.6850   85.5890   12.6179 N.am    1  UNL1       -0.2821
     19 C          61.5001   86.3153   11.3186 C.2     1  UNL1        0.3048
     20 O          62.6655   86.5065   10.3937 O.2     1  UNL1       -0.2525
     21 N          60.1498   86.8505   10.9441 N.am    1  UNL1       -0.2683
     22 H          60.9201   85.4635   13.2249 H       1  UNL1        0.1514
     23 H          59.3849   86.7250   11.5511 H       1  UNL1        0.1564
     24 C          59.9649   87.5768    9.6448 C.ar    1  UNL1        0.0517
     25 C          59.4429   86.8448    8.4440 C.ar    1  UNL1        0.0170
     26 C          59.2580   87.5711    7.1447 C.ar    1  UNL1        0.0309
     27 C          59.5951   89.0294    7.0460 C.ar    1  UNL1        0.1402
     28 F          59.4103   89.7557    5.7467 F       1  UNL1       -0.2042
     29 C          60.1172   89.7614    8.2467 C.ar    1  UNL1        0.0309
     30 C          60.3021   89.0350    9.5460 C.ar    1  UNL1        0.0170
@<TRIPOS>BOND
     1    16    17    1
     2    17     8    1
     3     8     9   ar
     4     9    10   ar
     5    10    11    1
     6    10    12   ar
     7     1    12    1
     8     1     2    1
     9     2     3    1
    10     3     4   am
    11     4     5    2
    12     4     6    1
    13     6    18    1
    14    18    19   am
    15    19    20    2
    16    19    21   am
    17    21    24    1
    18    24    25   ar
    19    25    26   ar
    20    26    27   ar
    21    27    28    1
    22    27    29   ar
    23    29    30   ar
    24    12    13   ar
    25    13    14    1
    26    13    15   ar
    27    15     8   ar
    28     6     1    1
    29    30    24   ar
    30     3     7    1
    31    18    22    1
    32    21    23    1
@<TRIPOS>MOLECULE
*****
 30 32 0 0 0
SMALL
GASTEIGER

@<TRIPOS>ATOM
      1 C          63.6797   89.3869   15.2478 C.3     1  UNL1        0.0732
      2 C          63.0089   89.8928   16.4904 C.3     1  UNL1        0.0960
      3 N          62.8226   88.7321   17.4220 N.am    1  UNL1       -0.3026
      4 C          63.3782   87.5087   16.7553 C.2     1  UNL1        0.2408
      5 O          63.4002   86.1238   17.3311 O.2     1  UNL1       -0.2733
      6 C          63.9079   87.9134   15.4115 C.3     1  UNL1        0.1555
      7 H          62.4083   88.7671   18.3145 H       1  UNL1        0.1495
      8 C          64.8091   91.8558   11.6591 C.ar    1  UNL1        0.1432
      9 C          65.5730   92.0035   12.9415 C.ar    1  UNL1        0.0663
     10 C          65.1965   91.1805   14.1378 C.ar    1  UNL1        0.1414
     11 F          65.9604   91.3282   15.4203 F       1  UNL1       -0.2043
     12 C          64.0562   90.2099   14.0516 C.ar    1  UNL1        0.0363
     13 C          63.2923   90.0622   12.7691 C.ar    1  UNL1        0.1414
     14 F          62.1520   89.0915   12.6829 F       1  UNL1       -0.2043
     15 C          63.6688   90.8852   11.5729 C.ar    1  UNL1        0.0663
     16 C          66.0597   93.8865   10.6283 C.3     1  UNL1        0.2525
     17 O          65.1856   92.6788   10.4629 O.3     1  UNL1       -0.4713
     18 N          64.5527   87.0042   14.4077 N.am    1  UNL1       -0.2821
     19 C          63.9732   85.6459   14.1450 C.2     1  UNL1        0.3048
     20 O          62.7488   85.1967   14.8861 O.2     1  UNL1       -0.2525
     21 N          64.6180   84.7367   13.1412 N.am    1  UNL1       -0.2683
     22 H          65.3563   87.2990   13.9213 H       1  UNL1        0.1514
     23 H          65.4216   85.0315   12.6548 H       1  UNL1        0.1564
     24 C          64.0384   83.3784   12.8785 C.ar    1  UNL1        0.0517
     25 C          63.6255   82.9952   11.4883 C.ar    1  UNL1        0.0170
     26 C          63.0459   81.6369   11.2256 C.ar    1  UNL1        0.0309
     27 C          62.8793   80.6616   12.3530 C.ar    1  UNL1        0.1402
     28 F          62.2997   79.3033   12.0904 F       1  UNL1       -0.2042
     29 C          63.2922   81.0448   13.7432 C.ar    1  UNL1        0.0309
     30 C          63.8718   82.4032   14.0059 C.ar    1  UNL1        0.0170
@<TRIPOS>BOND
     1    16    17    1
     2    17     8    1
     3     8     9   ar
     4     9    10   ar
     5    10    11    1
     6    10    12   ar
     7     1    12    1
     8     1     2    1
     9     2     3    1
    10     3     4   am
    11     4     5    2
    12     4     6    1
    13     6    18    1
    14    18    19   am
    15    19    20    2
    16    19    21   am
    17    21    24    1
    18    24    25   ar
    19    25    26   ar
    20    26    27   ar
    21    27    28    1
    22    27    29   ar
    23    29    30   ar
    24    12    13   ar
    25    13    14    1
    26    13    15   ar
    27    15     8   ar
    28     6     1    1
    29    30    24   ar
    30     3     7    1
    31    18    22    1
    32    21    23    1
@<TRIPOS>MOLECULE
*****
 30 32 0 0 0
SMALL
GASTEIGER

@<TRIPOS>ATOM
      1 C          62.0113   90.0992   10.9473 C.3     1  UNL1        0.0732
      2 C          60.8110   90.9044   10.5462 C.3     1  UNL1        0.0960
      3 N          59.8942   90.0116    9.7637 N.am    1  UNL1       -0.3026
      4 C          60.5279   88.6545    9.6811 C.2     1  UNL1        0.2408
      5 O          59.9540   87.4541    8.9887 O.2     1  UNL1       -0.2733
      6 C          61.8363   88.7087   10.4127 C.3     1  UNL1        0.1555
      7 H          59.0286   90.2708    9.3729 H       1  UNL1        0.1495
      8 C          65.5209   91.5927   13.3352 C.ar    1  UNL1        0.1432
      9 C          65.2169   92.1916   11.9940 C.ar    1  UNL1        0.0663
     10 C          64.0470   91.6938   11.1981 C.ar    1  UNL1        0.1414
     11 F          63.7431   92.2928    9.8568 F       1  UNL1       -0.2043
     12 C          63.1812   90.5970   11.7433 C.ar    1  UNL1        0.0363
     13 C          63.4851   89.9981   13.0845 C.ar    1  UNL1        0.1414
     14 F          62.6192   88.9013   13.6298 F       1  UNL1       -0.2043
     15 C          64.6550   90.4960   13.8804 C.ar    1  UNL1        0.0663
     16 C          66.7678   93.5351   14.5279 C.3     1  UNL1        0.2525
     17 O          66.6907   92.0906   14.1312 O.3     1  UNL1       -0.4713
     18 N          62.8005   87.5718   10.5801 N.am    1  UNL1       -0.2821
     19 C          62.3973   86.3550   11.3589 C.2     1  UNL1        0.3048
     20 O          61.0298   86.2748   11.9702 O.2     1  UNL1       -0.2525
     21 N          63.3614   85.2181   11.5263 N.am    1  UNL1       -0.2683
     22 H          63.6980   87.6244   10.1789 H       1  UNL1        0.1514
     23 H          64.2589   85.2707   11.1251 H       1  UNL1        0.1564
     24 C          62.9582   84.0012   12.3051 C.ar    1  UNL1        0.0517
     25 C          62.7250   84.1002   13.7836 C.ar    1  UNL1        0.0170
     26 C          62.3217   82.8833   14.5623 C.ar    1  UNL1        0.0309
     27 C          62.1516   81.5674   13.8627 C.ar    1  UNL1        0.1402
     28 F          61.7483   80.3505   14.6415 F       1  UNL1       -0.2042
     29 C          62.3848   81.4685   12.3843 C.ar    1  UNL1        0.0309
     30 C          62.7880   82.6854   11.6055 C.ar    1  UNL1        0.0170
@<TRIPOS>BOND
     1    16    17    1
     2    17     8    1
     3     8     9   ar
     4     9    10   ar
     5    10    11    1
     6    10    12   ar
     7     1    12    1
     8     1     2    1
     9     2     3    1
    10     3     4   am
    11     4     5    2
    12     4     6    1
    13     6    18    1
    14    18    19   am
    15    19    20    2
    16    19    21   am
    17    21    24    1
    18    24    25   ar
    19    25    26   ar
    20    26    27   ar
    21    27    28    1
    22    27    29   ar
    23    29    30   ar
    24    12    13   ar
    25    13    14    1
    26    13    15   ar
    27    15     8   ar
    28     6     1    1
    29    30    24   ar
    30     3     7    1
    31    18    22    1
    32    21    23    1
