@<TRIPOS>MOLECULE
*****
 42 46 0 0 0
SMALL
GASTEIGER

@<TRIPOS>ATOM
      1 C          64.0244   84.4147   13.2828 C.ar    1  UNL1        0.1721
      2 C          63.5065   85.8076   13.4863 C.ar    1  UNL1        0.0360
      3 C          62.8222   86.5253   12.3608 C.ar    1  UNL1       -0.0119
      4 C          62.6558   85.8500   11.0319 C.ar    1  UNL1       -0.0000
      5 C          63.1737   84.4571   10.8284 C.ar    1  UNL1        0.0374
      6 C          63.8580   83.7394   11.9538 C.ar    1  UNL1        0.1718
      7 C          61.9716   86.5676    9.9064 C.3     1  UNL1        0.1245
      8 N          61.4537   87.9606   10.1099 N.am    1  UNL1       -0.2523
      9 C          61.6200   88.6359   11.4389 C.2     1  UNL1        0.2342
     10 O          61.1021   90.0289   11.6424 O.2     1  UNL1       -0.2742
     11 C          62.3043   87.9183   12.5644 C.3     1  UNL1        0.1118
     12 C          61.8052   85.8924    8.5774 C.ar    1  UNL1        0.0003
     13 C          63.0120   85.4435    7.8078 C.ar    1  UNL1       -0.0015
     14 C          62.8456   84.7682    6.4788 C.ar    1  UNL1        0.0111
     15 C          61.4725   84.5418    5.9193 C.ar    1  UNL1        0.0577
     16 CL         61.3061   83.8664    4.5902 Cl      1  UNL1       -0.0822
     17 C          60.2657   84.9906    6.6888 C.ar    1  UNL1        0.0111
     18 C          60.4320   85.6659    8.0179 C.ar    1  UNL1       -0.0015
     19 C          60.7694   88.6782    8.9844 C.ar    1  UNL1        0.0545
     20 C          59.5223   88.1062    8.3783 C.ar    1  UNL1        0.0162
     21 C          58.8380   88.8238    7.2528 C.ar    1  UNL1        0.0158
     22 C          59.4008   90.1135    6.7334 C.ar    1  UNL1        0.0480
     23 C          60.6480   90.6857    7.3395 C.ar    1  UNL1        0.0158
     24 C          61.3323   89.9680    8.4650 C.ar    1  UNL1        0.0162
     25 N          58.7165   90.8312    5.6079 N.pl3   1  UNL1       -0.3058
     26 C          57.5930   90.1675    4.8682 C.3     1  UNL1        0.1122
     27 C          59.1558   92.2126    5.2221 C.3     1  UNL1        0.0908
     28 C          60.1297   92.4031    4.0973 C.3     1  UNL1        0.0199
     29 C          59.8082   93.3499    2.9790 C.3     1  UNL1        0.0031
     30 C          60.7821   93.5404    1.8542 C.3     1  UNL1        0.0160
     31 C          62.0776   92.7842    1.8476 C.3     1  UNL1        0.0576
     32 C          62.3991   91.8375    2.9658 C.3     1  UNL1        0.0160
     33 C          61.4252   91.6470    4.0907 C.3     1  UNL1        0.0031
     34 N          63.0515   92.9747    0.7228 N.3     1  UNL1       -0.2716
     35 C          62.5524   93.1285   -0.6834 C.3     1  UNL1        0.0896
     36 C          64.5244   93.0114    1.0042 C.3     1  UNL1        0.0896
     37 C          63.9329   83.3088   15.6320 C.3     1  UNL1        0.2526
     38 O          64.7087   83.6970   14.4083 O.3     1  UNL1       -0.4684
     39 O          64.3759   82.3464   11.7503 O.3     1  UNL1       -0.4761
     40 C          63.4196   81.1926   11.6858 C.3     1  UNL1        0.1663
     41 C          62.7512   80.7017   12.9357 C.3     1  UNL1        0.0472
     42 C          63.1316   80.5297   10.3714 C.3     1  UNL1        0.0472
@<TRIPOS>BOND
     1    37    38    1
     2    38     1    1
     3     1     2   ar
     4     2     3   ar
     5     3     4   ar
     6     4     5   ar
     7     5     6   ar
     8     6    39    1
     9    39    40    1
    10    40    41    1
    11    40    42    1
    12     4     7    1
    13     7    12    1
    14    12    13   ar
    15    13    14   ar
    16    14    15   ar
    17    15    16    1
    18    15    17   ar
    19    17    18   ar
    20     7     8    1
    21     8    19    1
    22    19    20   ar
    23    20    21   ar
    24    21    22   ar
    25    22    25    1
    26    25    26    1
    27    25    27    1
    28    28    27    1
    29    28    29    1
    30    29    30    1
    31    30    31    1
    32    31    34    1
    33    34    35    1
    34    34    36    1
    35    31    32    1
    36    32    33    1
    37    22    23   ar
    38    23    24   ar
    39     8     9   am
    40     9    10    2
    41     9    11    1
    42     6     1   ar
    43    18    12   ar
    44    24    19   ar
    45    11     3    1
    46    33    28    1
@<TRIPOS>MOLECULE
*****
 42 46 0 0 0
SMALL
GASTEIGER

@<TRIPOS>ATOM
      1 C          63.8500   83.1941   12.4119 C.ar    1  UNL1        0.1721
      2 C          63.7606   83.1423   10.9155 C.ar    1  UNL1        0.0360
      3 C          63.0126   84.2085   10.1715 C.ar    1  UNL1       -0.0119
      4 C          62.3539   85.3266   10.9238 C.ar    1  UNL1       -0.0000
      5 C          62.4433   85.3784   12.4202 C.ar    1  UNL1        0.0374
      6 C          63.1913   84.3121   13.1643 C.ar    1  UNL1        0.1718
      7 C          61.6059   86.3928   10.1798 C.3     1  UNL1        0.1245
      8 N          61.5165   86.3410    8.6834 N.am    1  UNL1       -0.2523
      9 C          62.1752   85.2229    7.9309 C.2     1  UNL1        0.2342
     10 O          62.0858   85.1711    6.4345 O.2     1  UNL1       -0.2742
     11 C          62.9232   84.1566    8.6750 C.3     1  UNL1        0.1118
     12 C          60.9473   87.5109   10.9322 C.ar    1  UNL1        0.0003
     13 C          61.7744   88.6369   11.4782 C.ar    1  UNL1       -0.0015
     14 C          61.1157   89.7549   12.2306 C.ar    1  UNL1        0.0111
     15 C          59.6300   89.7471   12.4369 C.ar    1  UNL1        0.0577
     16 CL         58.9714   90.8652   13.1894 Cl      1  UNL1       -0.0822
     17 C          58.8029   88.6212   11.8909 C.ar    1  UNL1        0.0111
     18 C          59.4616   87.5030   11.1385 C.ar    1  UNL1       -0.0015
     19 C          60.7685   87.4072    7.9394 C.ar    1  UNL1        0.0545
     20 C          59.6544   87.0310    7.0082 C.ar    1  UNL1        0.0162
     21 C          58.9064   88.0972    6.2641 C.ar    1  UNL1        0.0158
     22 C          59.2725   89.5397    6.4513 C.ar    1  UNL1        0.0480
     23 C          60.3866   89.9161    7.3825 C.ar    1  UNL1        0.0158
     24 C          61.1346   88.8498    8.1266 C.ar    1  UNL1        0.0162
     25 N          58.5245   90.6060    5.7072 N.pl3   1  UNL1       -0.3058
     26 C          57.1406   90.3339    5.1967 C.3     1  UNL1        0.1122
     27 C          59.1605   91.9443    5.4737 C.3     1  UNL1        0.0908
     28 C          59.9628   92.1866    4.2297 C.3     1  UNL1        0.0199
     29 C          61.3985   91.7561    4.1675 C.3     1  UNL1        0.0031
     30 C          62.2008   91.9984    2.9236 C.3     1  UNL1        0.0160
     31 C          61.5676   92.6711    1.7418 C.3     1  UNL1        0.0576
     32 C          60.1320   93.1015    1.8040 C.3     1  UNL1        0.0160
     33 C          59.3297   92.8592    3.0480 C.3     1  UNL1        0.0031
     34 N          62.3700   92.9134    0.4978 N.3     1  UNL1       -0.2716
     35 C          61.7154   92.8135   -0.8482 C.3     1  UNL1        0.0896
     36 C          63.8268   93.2555    0.5997 C.3     1  UNL1        0.0896
     37 C          63.8720   80.9170   13.6627 C.3     1  UNL1        0.2526
     38 O          64.5980   82.1278   13.1560 O.3     1  UNL1       -0.4684
     39 O          63.2807   84.3640   14.6608 O.3     1  UNL1       -0.4761
     40 C          63.9481   85.5274   15.3324 C.3     1  UNL1        0.1663
     41 C          65.2214   86.0878   14.7714 C.3     1  UNL1        0.0472
     42 C          63.3423   86.1304   16.5650 C.3     1  UNL1        0.0472
@<TRIPOS>BOND
     1    37    38    1
     2    38     1    1
     3     1     2   ar
     4     2     3   ar
     5     3     4   ar
     6     4     5   ar
     7     5     6   ar
     8     6    39    1
     9    39    40    1
    10    40    41    1
    11    40    42    1
    12     4     7    1
    13     7    12    1
    14    12    13   ar
    15    13    14   ar
    16    14    15   ar
    17    15    16    1
    18    15    17   ar
    19    17    18   ar
    20     7     8    1
    21     8    19    1
    22    19    20   ar
    23    20    21   ar
    24    21    22   ar
    25    22    25    1
    26    25    26    1
    27    25    27    1
    28    28    27    1
    29    28    29    1
    30    29    30    1
    31    30    31    1
    32    31    34    1
    33    34    35    1
    34    34    36    1
    35    31    32    1
    36    32    33    1
    37    22    23   ar
    38    23    24   ar
    39     8     9   am
    40     9    10    2
    41     9    11    1
    42     6     1   ar
    43    18    12   ar
    44    24    19   ar
    45    11     3    1
    46    33    28    1
@<TRIPOS>MOLECULE
*****
 42 46 0 0 0
SMALL
GASTEIGER

@<TRIPOS>ATOM
      1 C          62.6193   82.5998   11.6230 C.ar    1  UNL1        0.1721
      2 C          63.0785   82.8116   13.0352 C.ar    1  UNL1        0.0360
      3 C          63.3481   84.1996   13.5359 C.ar    1  UNL1       -0.0119
      4 C          63.1585   85.3758   12.6246 C.ar    1  UNL1       -0.0000
      5 C          62.6993   85.1639   11.2124 C.ar    1  UNL1        0.0374
      6 C          62.4297   83.7759   10.7116 C.ar    1  UNL1        0.1718
      7 C          63.4280   86.7638   13.1253 C.3     1  UNL1        0.1245
      8 N          63.8872   86.9756   14.5375 N.am    1  UNL1       -0.2523
      9 C          64.0769   85.7994   15.4489 C.2     1  UNL1        0.2342
     10 O          64.5361   86.0113   16.8611 O.2     1  UNL1       -0.2742
     11 C          63.8073   84.4114   14.9482 C.3     1  UNL1        0.1118
     12 C          63.2384   87.9399   12.2140 C.ar    1  UNL1        0.0003
     13 C          63.6676   89.3078   12.6555 C.ar    1  UNL1       -0.0015
     14 C          63.4780   90.4839   11.7441 C.ar    1  UNL1        0.0111
     15 C          62.8592   90.2923   10.3912 C.ar    1  UNL1        0.0577
     16 CL         62.6696   91.4686    9.4798 Cl      1  UNL1       -0.0822
     17 C          62.4301   88.9246    9.9496 C.ar    1  UNL1        0.0111
     18 C          62.6197   87.7483   10.8610 C.ar    1  UNL1       -0.0015
     19 C          64.1568   88.3636   15.0383 C.ar    1  UNL1        0.0545
     20 C          63.2085   89.0099   16.0041 C.ar    1  UNL1        0.0162
     21 C          63.4780   90.3979   16.5049 C.ar    1  UNL1        0.0158
     22 C          64.6960   91.1396   16.0398 C.ar    1  UNL1        0.0480
     23 C          65.6444   90.4934   15.0739 C.ar    1  UNL1        0.0158
     24 C          65.3748   89.1054   14.5731 C.ar    1  UNL1        0.0162
     25 N          64.9656   92.5276   16.5406 N.pl3   1  UNL1       -0.3058
     26 C          64.0199   93.1720   17.5103 C.3     1  UNL1        0.1122
     27 C          66.1809   93.2713   16.0715 C.3     1  UNL1        0.0908
     28 C          66.5656   93.2412   14.6220 C.3     1  UNL1        0.0199
     29 C          67.5425   92.2164   14.1265 C.3     1  UNL1        0.0031
     30 C          67.9272   92.1862   12.6769 C.3     1  UNL1        0.0160
     31 C          67.3350   93.1809   11.7230 C.3     1  UNL1        0.0576
     32 C          66.3582   94.2057   12.2186 C.3     1  UNL1        0.0160
     33 C          65.9735   94.2358   13.6681 C.3     1  UNL1        0.0031
     34 N          67.7197   93.1508   10.2735 N.3     1  UNL1       -0.2716
     35 C          68.3514   91.9215    9.6905 C.3     1  UNL1        0.0896
     36 C          67.4727   94.3499    9.4069 C.3     1  UNL1        0.0896
     37 C          62.6687   80.0277   11.9860 C.3     1  UNL1        0.2526
     38 O          62.3497   81.2118   11.1222 O.3     1  UNL1       -0.4684
     39 O          61.9705   83.5641    9.2994 O.3     1  UNL1       -0.4761
     40 C          61.9755   84.7083    8.3295 C.3     1  UNL1        0.1663
     41 C          60.8072   85.6473    8.2712 C.3     1  UNL1        0.0472
     42 C          63.1489   84.9136    7.4179 C.3     1  UNL1        0.0472
@<TRIPOS>BOND
     1    37    38    1
     2    38     1    1
     3     1     2   ar
     4     2     3   ar
     5     3     4   ar
     6     4     5   ar
     7     5     6   ar
     8     6    39    1
     9    39    40    1
    10    40    41    1
    11    40    42    1
    12     4     7    1
    13     7    12    1
    14    12    13   ar
    15    13    14   ar
    16    14    15   ar
    17    15    16    1
    18    15    17   ar
    19    17    18   ar
    20     7     8    1
    21     8    19    1
    22    19    20   ar
    23    20    21   ar
    24    21    22   ar
    25    22    25    1
    26    25    26    1
    27    25    27    1
    28    28    27    1
    29    28    29    1
    30    29    30    1
    31    30    31    1
    32    31    34    1
    33    34    35    1
    34    34    36    1
    35    31    32    1
    36    32    33    1
    37    22    23   ar
    38    23    24   ar
    39     8     9   am
    40     9    10    2
    41     9    11    1
    42     6     1   ar
    43    18    12   ar
    44    24    19   ar
    45    11     3    1
    46    33    28    1
