@<TRIPOS>MOLECULE
*****
 24 26 0 0 0
SMALL
GASTEIGER

@<TRIPOS>ATOM
      1 C          65.8101   92.2390   14.1787 C.ar    1  UNL1        0.1387
      2 C          65.3865   91.0080   14.9237 C.ar    1  UNL1        0.0369
      3 C          64.4756   90.0117   14.2696 C.ar    1  UNL1        0.0031
      4 C          63.9884   90.2464   12.8705 C.ar    1  UNL1       -0.0000
      5 C          63.0776   89.2501   12.2165 C.ar    1  UNL1       -0.0017
      6 C          62.5904   89.4849   10.8174 C.ar    1  UNL1        0.0070
      7 C          63.0140   90.7159   10.0723 C.ar    1  UNL1       -0.0017
      8 C          63.9249   91.7122   10.7264 C.ar    1  UNL1       -0.0001
      9 C          64.4121   91.4774   12.1255 C.ar    1  UNL1        0.0030
     10 C          65.3229   92.4737   12.7796 C.ar    1  UNL1        0.0369
     11 C          61.6796   88.4886   10.1633 C.3     1  UNL1        0.1410
     12 O          62.8356   87.9501    9.3736 O.3     1  UNL1       -0.3771
     13 H          63.6401   88.4415    9.6022 H       1  UNL1        0.2112
     14 C          60.5235   89.0270   10.9530 C.ar    1  UNL1        0.0825
     15 C          59.9464   90.4070   10.8418 C.ar    1  UNL1        0.1157
     16 N          58.8078   90.5129   11.8126 N.ar    1  UNL1       -0.2228
     17 C          58.6813   89.1983   12.5238 C.ar    1  UNL1        0.1749
     18 N          59.7417   88.2800   11.9925 N.ar    1  UNL1       -0.3361
     19 H          59.8972   87.3502   12.2763 H       1  UNL1        0.1673
     20 C          60.7687   87.4923    9.5093 C.3     1  UNL1        0.0340
     21 C          59.7118   87.9578    8.5521 C.3     1  UNL1        0.0031
     22 C          60.9149   86.0305    9.8124 C.3     1  UNL1        0.0031
     23 C          67.5139   92.8441   16.0443 C.3     1  UNL1        0.2525
     24 O          66.7209   93.2353   14.8327 O.3     1  UNL1       -0.4714
@<TRIPOS>BOND
     1    23    24    1
     2    24     1    1
     3     1     2   ar
     4     2     3   ar
     5     3     4   ar
     6     4     5   ar
     7     5     6   ar
     8     6    11    1
     9    11    12    1
    10    11    14    1
    11    14    15   ar
    12    15    16   ar
    13    16    17   ar
    14    17    18   ar
    15    11    20    1
    16    20    21    1
    17    20    22    1
    18     6     7   ar
    19     7     8   ar
    20     8     9   ar
    21     9    10   ar
    22    10     1   ar
    23     9     4   ar
    24    18    14   ar
    25    12    13    1
    26    18    19    1
@<TRIPOS>MOLECULE
*****
 24 26 0 0 0
SMALL
GASTEIGER

@<TRIPOS>ATOM
      1 C          63.8866   89.5807   13.1047 C.ar    1  UNL1        0.1387
      2 C          63.0716   89.0489   11.9633 C.ar    1  UNL1        0.0369
      3 C          62.7058   87.5949   11.9162 C.ar    1  UNL1        0.0031
      4 C          63.1550   86.6727   13.0106 C.ar    1  UNL1       -0.0000
      5 C          62.7892   85.2188   12.9635 C.ar    1  UNL1       -0.0017
      6 C          63.2385   84.2966   14.0579 C.ar    1  UNL1        0.0070
      7 C          64.0536   84.8283   15.1994 C.ar    1  UNL1       -0.0017
      8 C          64.4193   86.2823   15.2465 C.ar    1  UNL1       -0.0001
      9 C          63.9701   87.2045   14.1520 C.ar    1  UNL1        0.0030
     10 C          64.3359   88.6585   14.1991 C.ar    1  UNL1        0.0369
     11 C          62.8727   82.8426   14.0108 C.3     1  UNL1        0.1410
     12 O          62.3549   82.9274   15.4161 O.3     1  UNL1       -0.3771
     13 H          62.4663   83.8321   15.7477 H       1  UNL1        0.2112
     14 C          63.3905   82.7579   12.6056 C.ar    1  UNL1        0.0825
     15 C          64.7931   83.0527   12.1636 C.ar    1  UNL1        0.1157
     16 N          64.8661   82.8404   10.6805 N.ar    1  UNL1       -0.2228
     17 C          63.5084   82.4144   10.2059 C.ar    1  UNL1        0.1749
     18 N          62.5964   82.3634   11.3958 N.ar    1  UNL1       -0.3361
     19 H          61.6439   82.1146   11.3846 H       1  UNL1        0.1673
     20 C          62.5069   81.3887   13.9638 C.3     1  UNL1        0.0340
     21 C          63.5698   80.3548   13.7373 C.3     1  UNL1        0.0031
     22 C          61.0781   80.9686   14.1432 C.3     1  UNL1        0.0031
     23 C          65.4542   91.4808   13.9306 C.3     1  UNL1        0.2525
     24 O          64.2524   91.0346   13.1518 O.3     1  UNL1       -0.4714
@<TRIPOS>BOND
     1    23    24    1
     2    24     1    1
     3     1     2   ar
     4     2     3   ar
     5     3     4   ar
     6     4     5   ar
     7     5     6   ar
     8     6    11    1
     9    11    12    1
    10    11    14    1
    11    14    15   ar
    12    15    16   ar
    13    16    17   ar
    14    17    18   ar
    15    11    20    1
    16    20    21    1
    17    20    22    1
    18     6     7   ar
    19     7     8   ar
    20     8     9   ar
    21     9    10   ar
    22    10     1   ar
    23     9     4   ar
    24    18    14   ar
    25    12    13    1
    26    18    19    1
@<TRIPOS>MOLECULE
*****
 24 26 0 0 0
SMALL
GASTEIGER

@<TRIPOS>ATOM
      1 C          65.7722   92.5313   12.9074 C.ar    1  UNL1        0.1387
      2 C          65.7397   92.9479   11.4668 C.ar    1  UNL1        0.0369
      3 C          64.7581   92.3156   10.5252 C.ar    1  UNL1        0.0031
      4 C          63.8089   91.2668   11.0242 C.ar    1  UNL1       -0.0000
      5 C          62.8273   90.6345   10.0826 C.ar    1  UNL1       -0.0017
      6 C          61.8782   89.5857   10.5816 C.ar    1  UNL1        0.0070
      7 C          61.9106   89.1691   12.0222 C.ar    1  UNL1       -0.0017
      8 C          62.8923   89.8013   12.9639 C.ar    1  UNL1       -0.0001
      9 C          63.8414   90.8502   12.4648 C.ar    1  UNL1        0.0030
     10 C          64.8231   91.4825   13.4064 C.ar    1  UNL1        0.0369
     11 C          60.8965   88.9534    9.6400 C.3     1  UNL1        0.1410
     12 O          60.3446   90.3076    9.3060 O.3     1  UNL1       -0.3771
     13 H          60.8241   90.9850    9.8081 H       1  UNL1        0.2112
     14 C          61.4484   87.5992    9.9739 C.ar    1  UNL1        0.0825
     15 C          62.4197   86.8138    9.1435 C.ar    1  UNL1        0.1157
     16 N          62.6975   85.5218    9.8533 N.ar    1  UNL1       -0.2228
     17 C          61.8979   85.5089   11.1223 C.ar    1  UNL1        0.1749
     18 N          61.1259   86.7928   11.1968 N.ar    1  UNL1       -0.3361
     19 H          60.5148   87.0594   11.9212 H       1  UNL1        0.1673
     20 C          59.9149   88.3212    8.6984 C.3     1  UNL1        0.0340
     21 C          59.6445   88.9495    7.3635 C.3     1  UNL1        0.0031
     22 C          59.2035   87.0604    9.0917 C.3     1  UNL1        0.0031
     23 C          66.6352   92.9281   15.3256 C.3     1  UNL1        0.2525
     24 O          66.7539   93.1636   13.8490 O.3     1  UNL1       -0.4714
@<TRIPOS>BOND
     1    23    24    1
     2    24     1    1
     3     1     2   ar
     4     2     3   ar
     5     3     4   ar
     6     4     5   ar
     7     5     6   ar
     8     6    11    1
     9    11    12    1
    10    11    14    1
    11    14    15   ar
    12    15    16   ar
    13    16    17   ar
    14    17    18   ar
    15    11    20    1
    16    20    21    1
    17    20    22    1
    18     6     7   ar
    19     7     8   ar
    20     8     9   ar
    21     9    10   ar
    22    10     1   ar
    23     9     4   ar
    24    18    14   ar
    25    12    13    1
    26    18    19    1
@<TRIPOS>MOLECULE
*****
 24 26 0 0 0
SMALL
GASTEIGER

@<TRIPOS>ATOM
      1 C          61.4896   88.3304   10.2949 C.ar    1  UNL1        0.1387
      2 C          61.6204   89.6967    9.6900 C.ar    1  UNL1        0.0369
      3 C          62.4915   90.7269   10.3456 C.ar    1  UNL1        0.0031
      4 C          63.2318   90.3908   11.6061 C.ar    1  UNL1       -0.0000
      5 C          64.1030   91.4210   12.2616 C.ar    1  UNL1       -0.0017
      6 C          64.8433   91.0849   13.5221 C.ar    1  UNL1        0.0070
      7 C          64.7125   89.7185   14.1271 C.ar    1  UNL1       -0.0017
      8 C          63.8414   88.6883   13.4715 C.ar    1  UNL1       -0.0001
      9 C          63.1010   89.0244   12.2110 C.ar    1  UNL1        0.0030
     10 C          62.2299   87.9942   11.5554 C.ar    1  UNL1        0.0369
     11 C          65.7144   92.1151   14.1777 C.3     1  UNL1        0.1410
     12 O          64.8856   92.0226   15.4245 O.3     1  UNL1       -0.3771
     13 H          64.1758   91.3745   15.2935 H       1  UNL1        0.2112
     14 C          66.5433   92.2076   12.9310 C.ar    1  UNL1        0.0825
     15 C          67.9360   91.6787   12.7570 C.ar    1  UNL1        0.1157
     16 N          68.3784   91.9895   11.3578 N.ar    1  UNL1       -0.2228
     17 C          67.2590   92.7105   10.6671 C.ar    1  UNL1        0.1749
     18 N          66.1248   92.8453   11.6394 N.ar    1  UNL1       -0.3361
     19 H          65.2579   93.2765   11.4612 H       1  UNL1        0.1673
     20 C          66.5855   93.1453   14.8333 C.3     1  UNL1        0.0340
     21 C          66.8172   94.4675   14.1639 C.3     1  UNL1        0.0031
     22 C          67.2251   92.8533   16.1584 C.3     1  UNL1        0.0031
     23 C          59.7690   87.6759    8.4616 C.3     1  UNL1        0.2525
     24 O          60.6185   87.3001    9.6393 O.3     1  UNL1       -0.4714
@<TRIPOS>BOND
     1    23    24    1
     2    24     1    1
     3     1     2   ar
     4     2     3   ar
     5     3     4   ar
     6     4     5   ar
     7     5     6   ar
     8     6    11    1
     9    11    12    1
    10    11    14    1
    11    14    15   ar
    12    15    16   ar
    13    16    17   ar
    14    17    18   ar
    15    11    20    1
    16    20    21    1
    17    20    22    1
    18     6     7   ar
    19     7     8   ar
    20     8     9   ar
    21     9    10   ar
    22    10     1   ar
    23     9     4   ar
    24    18    14   ar
    25    12    13    1
    26    18    19    1
@<TRIPOS>MOLECULE
*****
 24 26 0 0 0
SMALL
GASTEIGER

@<TRIPOS>ATOM
      1 C          60.8251   86.7969    9.3188 C.ar    1  UNL1        0.1387
      2 C          61.4853   85.9158   10.3375 C.ar    1  UNL1        0.0369
      3 C          62.3382   86.5212   11.4127 C.ar    1  UNL1        0.0031
      4 C          62.5309   88.0077   11.4692 C.ar    1  UNL1       -0.0000
      5 C          63.3838   88.6131   12.5444 C.ar    1  UNL1       -0.0017
      6 C          63.5765   90.0996   12.6008 C.ar    1  UNL1        0.0070
      7 C          62.9163   90.9807   11.5821 C.ar    1  UNL1       -0.0017
      8 C          62.0634   90.3753   10.5069 C.ar    1  UNL1       -0.0001
      9 C          61.8707   88.8888   10.4505 C.ar    1  UNL1        0.0030
     10 C          61.0178   88.2834    9.3753 C.ar    1  UNL1        0.0369
     11 C          64.4294   90.7050   13.6760 C.3     1  UNL1        0.1410
     12 O          64.9683   91.6980   12.6894 O.3     1  UNL1       -0.3771
     13 H          64.5645   91.5430   11.8212 H       1  UNL1        0.2112
     14 C          63.8906   89.7119   14.6627 C.ar    1  UNL1        0.0825
     15 C          64.4530   88.3490   14.9384 C.ar    1  UNL1        0.1157
     16 N          63.6047   87.7022   15.9929 N.ar    1  UNL1       -0.2228
     17 C          62.5180   88.6654   16.3689 C.ar    1  UNL1        0.1749
     18 N          62.6948   89.9075   15.5467 N.ar    1  UNL1       -0.3361
     19 H          62.1258   90.7102   15.5813 H       1  UNL1        0.1673
     20 C          65.2824   91.3104   14.7512 C.3     1  UNL1        0.0340
     21 C          66.7756   91.3165   14.6095 C.3     1  UNL1        0.0031
     22 C          64.6419   91.9096   15.9681 C.3     1  UNL1        0.0031
     23 C          58.9197   87.0184    7.5665 C.3     1  UNL1        0.2525
     24 O          59.9722   86.1915    8.2436 O.3     1  UNL1       -0.4714
@<TRIPOS>BOND
     1    23    24    1
     2    24     1    1
     3     1     2   ar
     4     2     3   ar
     5     3     4   ar
     6     4     5   ar
     7     5     6   ar
     8     6    11    1
     9    11    12    1
    10    11    14    1
    11    14    15   ar
    12    15    16   ar
    13    16    17   ar
    14    17    18   ar
    15    11    20    1
    16    20    21    1
    17    20    22    1
    18     6     7   ar
    19     7     8   ar
    20     8     9   ar
    21     9    10   ar
    22    10     1   ar
    23     9     4   ar
    24    18    14   ar
    25    12    13    1
    26    18    19    1
@<TRIPOS>MOLECULE
*****
 24 26 0 0 0
SMALL
GASTEIGER

@<TRIPOS>ATOM
      1 C          63.0893   82.1368   12.1422 C.ar    1  UNL1        0.1387
      2 C          62.7453   82.8958   13.3894 C.ar    1  UNL1        0.0369
      3 C          62.4374   84.3619   13.3142 C.ar    1  UNL1        0.0031
      4 C          62.4735   85.0690   11.9918 C.ar    1  UNL1       -0.0000
      5 C          62.1655   86.5351   11.9167 C.ar    1  UNL1       -0.0017
      6 C          62.2016   87.2422   10.5943 C.ar    1  UNL1        0.0070
      7 C          62.5456   86.4832    9.3470 C.ar    1  UNL1       -0.0017
      8 C          62.8535   85.0171    9.4222 C.ar    1  UNL1       -0.0001
      9 C          62.8175   84.3100   10.7447 C.ar    1  UNL1        0.0030
     10 C          63.1254   82.8439   10.8198 C.ar    1  UNL1        0.0369
     11 C          61.8937   88.7084   10.5191 C.3     1  UNL1        0.1410
     12 O          62.9830   88.9880   11.5117 O.3     1  UNL1       -0.3771
     13 H          63.4055   88.1545   11.7715 H       1  UNL1        0.2112
     14 C          60.8044   88.4287    9.5266 C.ar    1  UNL1        0.0825
     15 C          59.7790   87.3386    9.6268 C.ar    1  UNL1        0.1157
     16 N          58.8901   87.4262    8.4217 N.ar    1  UNL1       -0.2228
     17 C          59.3662   88.5704    7.5767 C.ar    1  UNL1        0.1749
     18 N          60.5493   89.1900    8.2596 N.ar    1  UNL1       -0.3361
     19 H          61.0675   89.9610    7.9335 H       1  UNL1        0.1673
     20 C          61.5858   90.1745   10.4439 C.3     1  UNL1        0.0340
     21 C          60.2291   90.6772   10.8399 C.3     1  UNL1        0.0031
     22 C          62.6345   91.1379    9.9728 C.3     1  UNL1        0.0031
     23 C          62.5417   79.7665   13.0543 C.3     1  UNL1        0.2525
     24 O          63.3973   80.6706   12.2174 O.3     1  UNL1       -0.4714
@<TRIPOS>BOND
     1    23    24    1
     2    24     1    1
     3     1     2   ar
     4     2     3   ar
     5     3     4   ar
     6     4     5   ar
     7     5     6   ar
     8     6    11    1
     9    11    12    1
    10    11    14    1
    11    14    15   ar
    12    15    16   ar
    13    16    17   ar
    14    17    18   ar
    15    11    20    1
    16    20    21    1
    17    20    22    1
    18     6     7   ar
    19     7     8   ar
    20     8     9   ar
    21     9    10   ar
    22    10     1   ar
    23     9     4   ar
    24    18    14   ar
    25    12    13    1
    26    18    19    1
@<TRIPOS>MOLECULE
*****
 24 26 0 0 0
SMALL
GASTEIGER

@<TRIPOS>ATOM
      1 C          60.8581   88.2999    9.6295 C.ar    1  UNL1        0.1387
      2 C          61.2318   87.4354   10.7969 C.ar    1  UNL1        0.0369
      3 C          62.2402   87.9196   11.7963 C.ar    1  UNL1        0.0031
      4 C          62.8748   89.2682   11.6282 C.ar    1  UNL1       -0.0000
      5 C          63.8832   89.7524   12.6276 C.ar    1  UNL1       -0.0017
      6 C          64.5178   91.1011   12.4595 C.ar    1  UNL1        0.0070
      7 C          64.1441   91.9657   11.2921 C.ar    1  UNL1       -0.0017
      8 C          63.1357   91.4815   10.2927 C.ar    1  UNL1       -0.0001
      9 C          62.5011   90.1327   10.4608 C.ar    1  UNL1        0.0030
     10 C          61.4927   89.6486    9.4614 C.ar    1  UNL1        0.0369
     11 C          65.5262   91.5853   13.4589 C.3     1  UNL1        0.1410
     12 O          65.0056   90.5990   14.4620 O.3     1  UNL1       -0.3771
     13 H          64.2786   90.0912   14.0690 H       1  UNL1        0.2112
     14 C          66.0468   92.5715   12.4558 C.ar    1  UNL1        0.0825
     15 C          66.9187   92.2536   11.2774 C.ar    1  UNL1        0.1157
     16 N          67.1977   93.5344   10.5483 N.ar    1  UNL1       -0.2228
     17 C          66.4982   94.6439   11.2760 C.ar    1  UNL1        0.1749
     18 N          65.7869   94.0488   12.4550 N.ar    1  UNL1       -0.3361
     19 H          65.2446   94.5413   13.1127 H       1  UNL1        0.1673
     20 C          66.5346   92.0695   14.4583 C.3     1  UNL1        0.0340
     21 C          68.0005   91.9367   14.1692 C.3     1  UNL1        0.0031
     22 C          66.0771   92.6865   15.7467 C.3     1  UNL1        0.0031
     23 C          59.9506   86.4255    8.0761 C.3     1  UNL1        0.2525
     24 O          59.8497   87.8157    8.6301 O.3     1  UNL1       -0.4714
@<TRIPOS>BOND
     1    23    24    1
     2    24     1    1
     3     1     2   ar
     4     2     3   ar
     5     3     4   ar
     6     4     5   ar
     7     5     6   ar
     8     6    11    1
     9    11    12    1
    10    11    14    1
    11    14    15   ar
    12    15    16   ar
    13    16    17   ar
    14    17    18   ar
    15    11    20    1
    16    20    21    1
    17    20    22    1
    18     6     7   ar
    19     7     8   ar
    20     8     9   ar
    21     9    10   ar
    22    10     1   ar
    23     9     4   ar
    24    18    14   ar
    25    12    13    1
    26    18    19    1
@<TRIPOS>MOLECULE
*****
 24 26 0 0 0
SMALL
GASTEIGER

@<TRIPOS>ATOM
      1 C          61.7790   88.0227   11.1975 C.ar    1  UNL1        0.1387
      2 C          61.7347   88.6804    9.8501 C.ar    1  UNL1        0.0369
      3 C          62.5052   89.9442    9.6068 C.ar    1  UNL1        0.0031
      4 C          63.3201   90.5502   10.7107 C.ar    1  UNL1       -0.0000
      5 C          64.0906   91.8139   10.4674 C.ar    1  UNL1       -0.0017
      6 C          64.9055   92.4199   11.5713 C.ar    1  UNL1        0.0070
      7 C          64.9498   91.7621   12.9187 C.ar    1  UNL1       -0.0017
      8 C          64.1793   90.4984   13.1621 C.ar    1  UNL1       -0.0001
      9 C          63.3644   89.8924   12.0580 C.ar    1  UNL1        0.0030
     10 C          62.5939   88.6286   12.3014 C.ar    1  UNL1        0.0369
     11 C          65.6760   93.6836   11.3279 C.3     1  UNL1        0.1410
     12 O          64.6866   94.0839   10.2740 O.3     1  UNL1       -0.3771
     13 H          64.0035   93.3998   10.1952 H       1  UNL1        0.2112
     14 C          66.6655   93.2833   12.3819 C.ar    1  UNL1        0.0825
     15 C          66.7083   93.7955   13.7910 C.ar    1  UNL1        0.1157
     16 N          67.8551   93.1292   14.4917 N.ar    1  UNL1       -0.2228
     17 C          68.5210   92.2053   13.5155 C.ar    1  UNL1        0.1749
     18 N          67.7857   92.3005   12.2116 N.ar    1  UNL1       -0.3361
     19 H          68.0007   91.8049   11.3885 H       1  UNL1        0.1673
     20 C          66.4465   94.9474   11.0846 C.3     1  UNL1        0.0340
     21 C          67.5279   94.9782   10.0455 C.3     1  UNL1        0.0031
     22 C          66.1357   96.1803   11.8804 C.3     1  UNL1        0.0031
     23 C          61.7081   85.4330   11.3930 C.3     1  UNL1        0.2525
     24 O          61.0085   86.7589   11.4408 O.3     1  UNL1       -0.4714
@<TRIPOS>BOND
     1    23    24    1
     2    24     1    1
     3     1     2   ar
     4     2     3   ar
     5     3     4   ar
     6     4     5   ar
     7     5     6   ar
     8     6    11    1
     9    11    12    1
    10    11    14    1
    11    14    15   ar
    12    15    16   ar
    13    16    17   ar
    14    17    18   ar
    15    11    20    1
    16    20    21    1
    17    20    22    1
    18     6     7   ar
    19     7     8   ar
    20     8     9   ar
    21     9    10   ar
    22    10     1   ar
    23     9     4   ar
    24    18    14   ar
    25    12    13    1
    26    18    19    1
@<TRIPOS>MOLECULE
*****
 24 26 0 0 0
SMALL
GASTEIGER

@<TRIPOS>ATOM
      1 C          60.5014   88.6519    8.5340 C.ar    1  UNL1        0.1387
      2 C          59.9386   87.2835    8.2874 C.ar    1  UNL1        0.0369
      3 C          60.3133   86.1448    9.1890 C.ar    1  UNL1        0.0031
      4 C          61.2508   86.3744   10.3372 C.ar    1  UNL1       -0.0000
      5 C          61.6255   85.2357   11.2388 C.ar    1  UNL1       -0.0017
      6 C          62.5630   85.4653   12.3870 C.ar    1  UNL1        0.0070
      7 C          63.1258   86.8337   12.6336 C.ar    1  UNL1       -0.0017
      8 C          62.7511   87.9724   11.7320 C.ar    1  UNL1       -0.0001
      9 C          61.8136   87.7428   10.5838 C.ar    1  UNL1        0.0030
     10 C          61.4389   88.8815    9.6822 C.ar    1  UNL1        0.0369
     11 C          62.9377   84.3266   13.2886 C.3     1  UNL1        0.1410
     12 O          62.4944   85.1236   14.4795 O.3     1  UNL1       -0.3771
     13 H          62.1703   85.9897   14.1865 H       1  UNL1        0.2112
     14 C          63.3810   83.5295   12.0977 C.ar    1  UNL1        0.0825
     15 C          64.6166   83.7743   11.2834 C.ar    1  UNL1        0.1157
     16 N          64.6658   82.7438   10.1945 N.ar    1  UNL1       -0.2228
     17 C          63.4604   81.8623   10.3358 C.ar    1  UNL1        0.1749
     18 N          62.6664   82.3479   11.5121 N.ar    1  UNL1       -0.3361
     19 H          61.8241   81.9593   11.8419 H       1  UNL1        0.1673
     20 C          63.3124   83.1878   14.1902 C.3     1  UNL1        0.0340
     21 C          64.6605   83.1637   14.8473 C.3     1  UNL1        0.0031
     22 C          62.3388   82.0731   14.4347 C.3     1  UNL1        0.0031
     23 C          59.3273   89.5317    6.3899 C.3     1  UNL1        0.2525
     24 O          60.1267   89.7906    7.6324 O.3     1  UNL1       -0.4714
@<TRIPOS>BOND
     1    23    24    1
     2    24     1    1
     3     1     2   ar
     4     2     3   ar
     5     3     4   ar
     6     4     5   ar
     7     5     6   ar
     8     6    11    1
     9    11    12    1
    10    11    14    1
    11    14    15   ar
    12    15    16   ar
    13    16    17   ar
    14    17    18   ar
    15    11    20    1
    16    20    21    1
    17    20    22    1
    18     6     7   ar
    19     7     8   ar
    20     8     9   ar
    21     9    10   ar
    22    10     1   ar
    23     9     4   ar
    24    18    14   ar
    25    12    13    1
    26    18    19    1
