@<TRIPOS>MOLECULE
*****
 23 26 0 0 0
SMALL
GASTEIGER

@<TRIPOS>ATOM
      1 C          63.4448   85.5926   13.1132 C.ar    1  UNL1       -0.0003
      2 C          64.1892   86.0679   14.3257 C.ar    1  UNL1       -0.0000
      3 C          64.4177   87.5350   14.5381 C.ar    1  UNL1       -0.0003
      4 C          63.9018   88.5269   13.5381 C.ar    1  UNL1       -0.0039
      5 C          63.1574   88.0517   12.3257 C.ar    1  UNL1       -0.0178
      6 C          62.9289   86.5845   12.1133 C.ar    1  UNL1       -0.0039
      7 C          62.7695   89.2551   11.5187 C.3     1  UNL1        0.0523
      8 C          63.2742   90.4742   12.2323 C.2     1  UNL1       -0.0214
      9 C          63.9740   90.0242   13.4804 C.2     1  UNL1       -0.0041
     10 C          62.7593   81.1910   12.4758 C.ar    1  UNL1        0.1387
     11 C          63.2334   82.0484   11.3400 C.ar    1  UNL1        0.0369
     12 C          63.4619   83.5156   11.5525 C.ar    1  UNL1        0.0031
     13 C          63.2163   84.1254   12.9007 C.ar    1  UNL1        0.0002
     14 C          62.7422   83.2680   14.0365 C.ar    1  UNL1        0.0031
     15 C          62.5137   81.8008   13.8241 C.ar    1  UNL1        0.0369
     16 C          62.7618   79.1169   10.9112 C.3     1  UNL1        0.2525
     17 O          62.5308   79.7238   12.2633 O.3     1  UNL1       -0.4714
     18 C          64.6307   90.9149   14.4930 C.ar    1  UNL1        0.0028
     19 C          65.9413   91.5721   14.1760 C.ar    1  UNL1        0.0207
     20 C          66.5979   92.4628   15.1887 C.ar    1  UNL1        0.0989
     21 N          65.9440   92.6962   16.5183 N.ar    1  UNL1       -0.2423
     22 C          64.6334   92.0390   16.8353 C.ar    1  UNL1        0.0989
     23 C          63.9768   91.1483   15.8227 C.ar    1  UNL1        0.0207
@<TRIPOS>BOND
     1    16    17    1
     2    17    10    1
     3    10    11   ar
     4    11    12   ar
     5    12    13   ar
     6    13     1    1
     7     1     2   ar
     8     2     3   ar
     9     3     4   ar
    10     4     5   ar
    11     5     6   ar
    12     5     7    1
    13     7     8    1
    14     8     9    2
    15     9    18    1
    16    18    19   ar
    17    19    20   ar
    18    20    21   ar
    19    21    22   ar
    20    22    23   ar
    21    13    14   ar
    22    14    15   ar
    23    15    10   ar
    24     6     1   ar
    25    23    18   ar
    26     9     4    1
@<TRIPOS>MOLECULE
*****
 23 26 0 0 0
SMALL
GASTEIGER

@<TRIPOS>ATOM
      1 C          64.2247   90.3750   12.9257 C.ar    1  UNL1       -0.0003
      2 C          63.4779   90.9303   11.7493 C.ar    1  UNL1       -0.0000
      3 C          62.6026   90.0333   10.9252 C.ar    1  UNL1       -0.0003
      4 C          62.4741   88.5810   11.2775 C.ar    1  UNL1       -0.0039
      5 C          63.2208   88.0256   12.4538 C.ar    1  UNL1       -0.0178
      6 C          64.0961   88.9226   13.2779 C.ar    1  UNL1       -0.0039
      7 C          62.9003   86.5640   12.5583 C.3     1  UNL1        0.0523
      8 C          61.9555   86.2160   11.4464 C.2     1  UNL1       -0.0214
      9 C          61.6920   87.4625   10.6548 C.2     1  UNL1       -0.0041
     10 C          66.8507   93.0660   15.3981 C.ar    1  UNL1        0.1387
     11 C          65.7604   92.2724   16.0549 C.ar    1  UNL1        0.0369
     12 C          64.8850   91.3754   15.2307 C.ar    1  UNL1        0.0031
     13 C          65.1000   91.2720   13.7498 C.ar    1  UNL1        0.0002
     14 C          66.1903   92.0656   13.0930 C.ar    1  UNL1        0.0031
     15 C          67.0657   92.9626   13.9171 C.ar    1  UNL1        0.0369
     16 C          69.2043   94.0048   15.9714 C.3     1  UNL1        0.2525
     17 O          67.7261   93.9630   16.2222 O.3     1  UNL1       -0.4714
     18 C          60.8027   87.5716    9.4518 C.ar    1  UNL1        0.0028
     19 C          60.2932   86.3306    8.7807 C.ar    1  UNL1        0.0207
     20 C          59.4040   86.4397    7.5778 C.ar    1  UNL1        0.0989
     21 N          59.0241   87.7898    7.0458 N.ar    1  UNL1       -0.2423
     22 C          59.5336   89.0308    7.7168 C.ar    1  UNL1        0.0989
     23 C          60.4229   88.9217    8.9198 C.ar    1  UNL1        0.0207
@<TRIPOS>BOND
     1    16    17    1
     2    17    10    1
     3    10    11   ar
     4    11    12   ar
     5    12    13   ar
     6    13     1    1
     7     1     2   ar
     8     2     3   ar
     9     3     4   ar
    10     4     5   ar
    11     5     6   ar
    12     5     7    1
    13     7     8    1
    14     8     9    2
    15     9    18    1
    16    18    19   ar
    17    19    20   ar
    18    20    21   ar
    19    21    22   ar
    20    22    23   ar
    21    13    14   ar
    22    14    15   ar
    23    15    10   ar
    24     6     1   ar
    25    23    18   ar
    26     9     4    1
@<TRIPOS>MOLECULE
*****
 23 26 0 0 0
SMALL
GASTEIGER

@<TRIPOS>ATOM
      1 C          62.9395   90.0711   11.0268 C.ar    1  UNL1       -0.0003
      2 C          63.4440   89.6771   12.3833 C.ar    1  UNL1       -0.0000
      3 C          64.5155   90.4881   13.0497 C.ar    1  UNL1       -0.0003
      4 C          65.0825   91.6931   12.3595 C.ar    1  UNL1       -0.0039
      5 C          64.5781   92.0871   11.0030 C.ar    1  UNL1       -0.0178
      6 C          63.5066   91.2761   10.3366 C.ar    1  UNL1       -0.0039
      7 C          65.3219   93.3159   10.5708 C.3     1  UNL1        0.0523
      8 C          66.2861   93.6813   11.6602 C.2     1  UNL1       -0.0214
      9 C          66.1382   92.6784   12.7657 C.2     1  UNL1       -0.0041
     10 C          59.7250   87.6380    9.0274 C.ar    1  UNL1        0.1387
     11 C          59.8619   89.0991    8.7172 C.ar    1  UNL1        0.0369
     12 C          60.9334   89.9102    9.3837 C.ar    1  UNL1        0.0031
     13 C          61.8680   89.2600   10.3603 C.ar    1  UNL1        0.0002
     14 C          61.7311   87.7989   10.6705 C.ar    1  UNL1        0.0031
     15 C          60.6596   86.9878   10.0041 C.ar    1  UNL1        0.0369
     16 C          58.9987   85.9305    7.2090 C.3     1  UNL1        0.2525
     17 O          58.6535   86.8269    8.3610 O.3     1  UNL1       -0.4714
     18 C          66.9102   92.6633   14.0517 C.ar    1  UNL1        0.0028
     19 C          68.4072   92.5708   14.0267 C.ar    1  UNL1        0.0207
     20 C          69.1792   92.5558   15.3126 C.ar    1  UNL1        0.0989
     21 N          68.4543   92.6332   16.6236 N.ar    1  UNL1       -0.2423
     22 C          66.9574   92.7257   16.6486 C.ar    1  UNL1        0.0989
     23 C          66.1854   92.7407   15.3626 C.ar    1  UNL1        0.0207
@<TRIPOS>BOND
     1    16    17    1
     2    17    10    1
     3    10    11   ar
     4    11    12   ar
     5    12    13   ar
     6    13     1    1
     7     1     2   ar
     8     2     3   ar
     9     3     4   ar
    10     4     5   ar
    11     5     6   ar
    12     5     7    1
    13     7     8    1
    14     8     9    2
    15     9    18    1
    16    18    19   ar
    17    19    20   ar
    18    20    21   ar
    19    21    22   ar
    20    22    23   ar
    21    13    14   ar
    22    14    15   ar
    23    15    10   ar
    24     6     1   ar
    25    23    18   ar
    26     9     4    1
@<TRIPOS>MOLECULE
*****
 23 26 0 0 0
SMALL
GASTEIGER

@<TRIPOS>ATOM
      1 C          62.7968   84.2409   11.8339 C.ar    1  UNL1       -0.0003
      2 C          63.5851   84.8863   12.9348 C.ar    1  UNL1       -0.0000
      3 C          63.6667   86.3815   13.0217 C.ar    1  UNL1       -0.0003
      4 C          62.9599   87.2314   12.0077 C.ar    1  UNL1       -0.0039
      5 C          62.1716   86.5861   10.9068 C.ar    1  UNL1       -0.0178
      6 C          62.0900   85.0908   10.8199 C.ar    1  UNL1       -0.0039
      7 C          61.5848   87.6744   10.0576 C.3     1  UNL1        0.0523
      8 C          62.0104   88.9923   10.6337 C.2     1  UNL1       -0.0214
      9 C          62.8603   88.7186   11.8389 C.2     1  UNL1       -0.0041
     10 C          62.5519   79.7551   11.5730 C.ar    1  UNL1        0.1387
     11 C          62.0100   80.4670   12.7769 C.ar    1  UNL1        0.0369
     12 C          62.0916   81.9623   12.8638 C.ar    1  UNL1        0.0031
     13 C          62.7152   82.7456   11.7469 C.ar    1  UNL1        0.0002
     14 C          63.2571   82.0337   10.5430 C.ar    1  UNL1        0.0031
     15 C          63.1755   80.5385   10.4560 C.ar    1  UNL1        0.0369
     16 C          63.0169   77.5477   10.2843 C.3     1  UNL1        0.2525
     17 O          62.4704   78.2599   11.4859 O.3     1  UNL1       -0.4714
     18 C          63.4985   89.7507   12.7206 C.ar    1  UNL1        0.0028
     19 C          63.6939   89.4720   14.1815 C.ar    1  UNL1        0.0207
     20 C          64.3321   90.5042   15.0631 C.ar    1  UNL1        0.0989
     21 N          64.7750   91.8150   14.4838 N.ar    1  UNL1       -0.2423
     22 C          64.5796   92.0937   13.0230 C.ar    1  UNL1        0.0989
     23 C          63.9414   91.0616   12.1414 C.ar    1  UNL1        0.0207
@<TRIPOS>BOND
     1    16    17    1
     2    17    10    1
     3    10    11   ar
     4    11    12   ar
     5    12    13   ar
     6    13     1    1
     7     1     2   ar
     8     2     3   ar
     9     3     4   ar
    10     4     5   ar
    11     5     6   ar
    12     5     7    1
    13     7     8    1
    14     8     9    2
    15     9    18    1
    16    18    19   ar
    17    19    20   ar
    18    20    21   ar
    19    21    22   ar
    20    22    23   ar
    21    13    14   ar
    22    14    15   ar
    23    15    10   ar
    24     6     1   ar
    25    23    18   ar
    26     9     4    1
@<TRIPOS>MOLECULE
*****
 23 26 0 0 0
SMALL
GASTEIGER

@<TRIPOS>ATOM
      1 C          61.7082   92.3708    2.8369 C.ar    1  UNL1       -0.0003
      2 C          62.4153   91.3798    3.7131 C.ar    1  UNL1       -0.0000
      3 C          61.6568   90.6455    4.7786 C.ar    1  UNL1       -0.0003
      4 C          60.1911   90.9021    4.9678 C.ar    1  UNL1       -0.0039
      5 C          59.4839   91.8931    4.0916 C.ar    1  UNL1       -0.0178
      6 C          60.2425   92.6274    3.0261 C.ar    1  UNL1       -0.0039
      7 C          58.0441   91.9370    4.5098 C.3     1  UNL1        0.0523
      8 C          57.8613   90.9731    5.6445 C.2     1  UNL1       -0.0214
      9 C          59.1882   90.3335    5.9276 C.2     1  UNL1       -0.0041
     10 C          63.9838   94.5739   -0.3597 C.ar    1  UNL1        0.1387
     11 C          62.4918   94.7036   -0.2768 C.ar    1  UNL1        0.0369
     12 C          61.7332   93.9692    0.7888 C.ar    1  UNL1        0.0031
     13 C          62.4667   93.1052    1.7713 C.ar    1  UNL1        0.0002
     14 C          63.9588   92.9755    1.6884 C.ar    1  UNL1        0.0031
     15 C          64.7174   93.7099    0.6229 C.ar    1  UNL1        0.0369
     16 C          64.3347   95.1757   -2.8626 C.3     1  UNL1        0.2525
     17 O          64.7424   95.3082   -1.4252 O.3     1  UNL1       -0.4714
     18 C          59.4640   89.3058    6.9849 C.ar    1  UNL1        0.0028
     19 C          59.0326   87.8839    6.7793 C.ar    1  UNL1        0.0207
     20 C          59.3084   86.8563    7.8366 C.ar    1  UNL1        0.0989
     21 N          60.0155   87.2504    9.0993 N.ar    1  UNL1       -0.2423
     22 C          60.4469   88.6723    9.3049 C.ar    1  UNL1        0.0989
     23 C          60.1711   89.6999    8.2476 C.ar    1  UNL1        0.0207
@<TRIPOS>BOND
     1    16    17    1
     2    17    10    1
     3    10    11   ar
     4    11    12   ar
     5    12    13   ar
     6    13     1    1
     7     1     2   ar
     8     2     3   ar
     9     3     4   ar
    10     4     5   ar
    11     5     6   ar
    12     5     7    1
    13     7     8    1
    14     8     9    2
    15     9    18    1
    16    18    19   ar
    17    19    20   ar
    18    20    21   ar
    19    21    22   ar
    20    22    23   ar
    21    13    14   ar
    22    14    15   ar
    23    15    10   ar
    24     6     1   ar
    25    23    18   ar
    26     9     4    1
@<TRIPOS>MOLECULE
*****
 23 26 0 0 0
SMALL
GASTEIGER

@<TRIPOS>ATOM
      1 C          62.7418   88.9301   10.5158 C.ar    1  UNL1       -0.0003
      2 C          62.8932   88.6348   11.9786 C.ar    1  UNL1       -0.0000
      3 C          63.5849   89.6190   12.8747 C.ar    1  UNL1       -0.0003
      4 C          64.1251   90.8984   12.3080 C.ar    1  UNL1       -0.0039
      5 C          63.9738   91.1937   10.8451 C.ar    1  UNL1       -0.0178
      6 C          63.2821   90.2095    9.9491 C.ar    1  UNL1       -0.0039
      7 C          64.6035   92.5278   10.5740 C.3     1  UNL1        0.0523
      8 C          65.1440   93.0571   11.8692 C.2     1  UNL1       -0.0214
      9 C          64.8484   92.0501   12.9409 C.2     1  UNL1       -0.0041
     10 C          60.6669   85.9775    7.8274 C.ar    1  UNL1        0.1387
     11 C          59.9841   87.2596    8.2017 C.ar    1  UNL1        0.0369
     12 C          60.6758   88.2438    9.0979 C.ar    1  UNL1        0.0031
     13 C          62.0502   87.9459    9.6197 C.ar    1  UNL1        0.0002
     14 C          62.7329   86.6638    9.2453 C.ar    1  UNL1        0.0031
     15 C          62.0413   85.6797    8.3492 C.ar    1  UNL1        0.0369
     16 C          60.7735   84.1693    5.9650 C.3     1  UNL1        0.2525
     17 O          59.9753   84.9934    6.9313 O.3     1  UNL1       -0.4714
     18 C          65.2121   92.1732   14.3909 C.ar    1  UNL1        0.0028
     19 C          64.2398   91.7394   15.4475 C.ar    1  UNL1        0.0207
     20 C          64.6036   91.8624   16.8975 C.ar    1  UNL1        0.0989
     21 N          65.9397   92.4193   17.2909 N.ar    1  UNL1       -0.2423
     22 C          66.9121   92.8530   16.2343 C.ar    1  UNL1        0.0989
     23 C          66.5482   92.7300   14.7843 C.ar    1  UNL1        0.0207
@<TRIPOS>BOND
     1    16    17    1
     2    17    10    1
     3    10    11   ar
     4    11    12   ar
     5    12    13   ar
     6    13     1    1
     7     1     2   ar
     8     2     3   ar
     9     3     4   ar
    10     4     5   ar
    11     5     6   ar
    12     5     7    1
    13     7     8    1
    14     8     9    2
    15     9    18    1
    16    18    19   ar
    17    19    20   ar
    18    20    21   ar
    19    21    22   ar
    20    22    23   ar
    21    13    14   ar
    22    14    15   ar
    23    15    10   ar
    24     6     1   ar
    25    23    18   ar
    26     9     4    1
