@<TRIPOS>MOLECULE
*****
 35 38 0 0 0
SMALL
GASTEIGER

@<TRIPOS>ATOM
      1 C          63.7352   90.9248   12.1203 C.ar    1  UNL1        0.0972
      2 N          63.3494   90.8374   10.6734 N.ar    1  UNL1       -0.2412
      3 C          62.1453   90.0416   10.2651 C.ar    1  UNL1        0.1172
      4 C          61.3270   89.3331   11.3036 C.ar    1  UNL1        0.1213
      5 N          61.7128   89.4206   12.7505 N.ar    1  UNL1       -0.2472
      6 C          62.9170   90.2165   13.1589 C.ar    1  UNL1        0.0764
      7 C          66.9173   92.1304   14.1626 C.ar    1  UNL1        0.2252
      8 C          65.7132   91.3346   13.7542 C.ar    1  UNL1        0.0615
      9 C          64.9394   91.7207   12.5287 C.ar    1  UNL1        0.0525
     10 C          65.3696   92.9026   11.7114 C.ar    1  UNL1        0.1608
     11 F          64.5957   93.2887   10.4858 F       1  UNL1       -0.2025
     12 C          66.5737   93.6984   12.1197 C.ar    1  UNL1        0.1316
     13 N          67.3476   93.3123   13.3453 N.ar    1  UNL1       -0.2078
     14 C          68.8343   92.5971   15.8530 C.3     1  UNL1        0.2542
     15 O          67.6912   91.7443   15.3882 O.3     1  UNL1       -0.4561
     16 C          60.1229   88.5373   10.8953 C.3     1  UNL1        0.2524
     17 O          60.2141   87.5736    9.7495 O.3     1  UNL1       -0.4689
     18 C          61.2743   86.5125    9.7445 C.ar    1  UNL1        0.1388
     19 C          62.0179   86.2012    8.4796 C.ar    1  UNL1        0.0369
     20 C          63.0782   85.1401    8.4746 C.ar    1  UNL1        0.0028
     21 C          63.3948   84.3904    9.7346 C.ar    1  UNL1       -0.0041
     22 C          62.6512   84.7017   10.9996 C.ar    1  UNL1       -0.0191
     23 C          61.5910   85.7627   11.0045 C.ar    1  UNL1        0.0327
     24 C          62.9678   83.9519   12.2596 C.3     1  UNL1        0.0280
     25 C          62.6771   82.4833   12.3515 C.3     1  UNL1        0.0044
     26 C          62.0077   81.3323   13.0423 C.3     1  UNL1        0.0003
     27 C          62.8431   81.0904   11.8201 C.3     1  UNL1        0.0003
     28 C          63.5751   84.6709   13.4276 C.3     1  UNL1        0.0460
     29 C          63.2535   84.2349   14.8264 C.2     1  UNL1        0.0507
     30 O          62.1702   84.9287   15.5978 O.co2   1  UNL1       -0.5492
     31 O          64.0152   83.1051   15.4537 O.co2   1  UNL1       -0.5492
     32 C          63.3028   90.3039   14.6058 C.3     1  UNL1        0.0473
     33 C          63.6022   89.0539   15.3790 C.3     1  UNL1        0.0060
     34 C          64.4137   87.9597   14.7509 C.3     1  UNL1        0.0004
     35 C          63.0903   88.8980   16.7802 C.3     1  UNL1        0.0004
@<TRIPOS>UNITY_ATOM_ATTR
30 1
charge -1
@<TRIPOS>BOND
     1    14    15    1
     2    15     7    1
     3     7     8   ar
     4     8     9   ar
     5     9     1    1
     6     1     2   ar
     7     2     3   ar
     8     3     4   ar
     9     4    16    1
    10    16    17    1
    11    17    18    1
    12    18    19   ar
    13    19    20   ar
    14    20    21   ar
    15    21    22   ar
    16    22    24    1
    17    24    28    1
    18    28    29    1
    19    29    30   ar
    20    29    31   ar
    21    24    25    1
    22    25    26    1
    23    26    27    1
    24    22    23   ar
    25     4     5   ar
    26     5     6   ar
    27     6    32    1
    28    32    33    1
    29    33    34    1
    30    33    35    1
    31     9    10   ar
    32    10    11    1
    33    10    12   ar
    34    12    13   ar
    35    13     7   ar
    36     6     1   ar
    37    23    18   ar
    38    27    25    1
@<TRIPOS>MOLECULE
*****
 35 38 0 0 0
SMALL
GASTEIGER

@<TRIPOS>ATOM
      1 C          63.9244   91.0519   12.0455 C.ar    1  UNL1        0.0972
      2 N          63.6938   90.9961   10.5644 N.ar    1  UNL1       -0.2412
      3 C          62.5513   90.1958   10.0129 C.ar    1  UNL1        0.1172
      4 C          61.6393   89.4512   10.9425 C.ar    1  UNL1        0.1213
      5 N          61.8699   89.5071   12.4236 N.ar    1  UNL1       -0.2472
      6 C          63.0125   90.3074   12.9751 C.ar    1  UNL1        0.0764
      7 C          66.9250   92.1868   14.3818 C.ar    1  UNL1        0.2252
      8 C          65.7825   91.3865   13.8303 C.ar    1  UNL1        0.0615
      9 C          65.0669   91.8523   12.5970 C.ar    1  UNL1        0.0525
     10 C          65.4938   93.1183   11.9152 C.ar    1  UNL1        0.1608
     11 F          64.7782   93.5840   10.6819 F       1  UNL1       -0.2025
     12 C          66.6363   93.9186   12.4667 C.ar    1  UNL1        0.1316
     13 N          67.3519   93.4528   13.7000 N.ar    1  UNL1       -0.2078
     14 C          68.8279   92.4823   16.1258 C.3     1  UNL1        0.2542
     15 O          67.6406   91.7211   15.6151 O.3     1  UNL1       -0.4561
     16 C          60.4969   88.6509   10.3909 C.3     1  UNL1        0.2524
     17 O          60.3135   87.2211   10.8057 O.3     1  UNL1       -0.4689
     18 C          61.3833   86.2117   10.5114 C.ar    1  UNL1        0.1388
     19 C          61.9670   86.1178    9.1328 C.ar    1  UNL1        0.0369
     20 C          63.0368   85.1083    8.8385 C.ar    1  UNL1        0.0028
     21 C          63.5230   84.1929    9.9228 C.ar    1  UNL1       -0.0041
     22 C          62.9393   84.2869   11.3014 C.ar    1  UNL1       -0.0191
     23 C          61.8695   85.2963   11.5957 C.ar    1  UNL1        0.0327
     24 C          63.4254   83.3715   12.3856 C.3     1  UNL1        0.0280
     25 C          64.0691   83.9407   13.6151 C.3     1  UNL1        0.0044
     26 C          63.9803   84.3586   15.0530 C.3     1  UNL1        0.0003
     27 C          65.2728   84.5087   14.3068 C.3     1  UNL1        0.0003
     28 C          63.2679   81.8868   12.2404 C.3     1  UNL1        0.0460
     29 C          62.8241   81.0616   13.4118 C.2     1  UNL1        0.0507
     30 O          63.8388   80.5168   14.3728 O.co2   1  UNL1       -0.5492
     31 O          61.3656   80.7812   13.6221 O.co2   1  UNL1       -0.5492
     32 C          63.2431   90.3633   14.4562 C.3     1  UNL1        0.0473
     33 C          63.6060   89.1159   15.2063 C.3     1  UNL1        0.0060
     34 C          63.1903   88.9542   16.6384 C.3     1  UNL1        0.0004
     35 C          64.3847   88.0304   14.5242 C.3     1  UNL1        0.0004
@<TRIPOS>UNITY_ATOM_ATTR
30 1
charge -1
@<TRIPOS>BOND
     1    14    15    1
     2    15     7    1
     3     7     8   ar
     4     8     9   ar
     5     9     1    1
     6     1     2   ar
     7     2     3   ar
     8     3     4   ar
     9     4    16    1
    10    16    17    1
    11    17    18    1
    12    18    19   ar
    13    19    20   ar
    14    20    21   ar
    15    21    22   ar
    16    22    24    1
    17    24    28    1
    18    28    29    1
    19    29    30   ar
    20    29    31   ar
    21    24    25    1
    22    25    26    1
    23    26    27    1
    24    22    23   ar
    25     4     5   ar
    26     5     6   ar
    27     6    32    1
    28    32    33    1
    29    33    34    1
    30    33    35    1
    31     9    10   ar
    32    10    11    1
    33    10    12   ar
    34    12    13   ar
    35    13     7   ar
    36     6     1   ar
    37    23    18   ar
    38    27    25    1
@<TRIPOS>MOLECULE
*****
 35 38 0 0 0
SMALL
GASTEIGER

@<TRIPOS>ATOM
      1 C          63.4428   84.6657   13.5966 C.ar    1  UNL1        0.0972
      2 N          64.2712   84.9903   14.8042 N.ar    1  UNL1       -0.2412
      3 C          64.6284   86.4152   15.1077 C.ar    1  UNL1        0.1172
      4 C          64.1570   87.5155   14.2037 C.ar    1  UNL1        0.1213
      5 N          63.3285   87.1909   12.9961 N.ar    1  UNL1       -0.2472
      6 C          62.9714   85.7659   12.6926 C.ar    1  UNL1        0.0764
      7 C          61.6949   81.1094   13.8158 C.ar    1  UNL1        0.2252
      8 C          62.0520   82.5343   14.1193 C.ar    1  UNL1        0.0615
      9 C          63.0856   83.2408   13.2931 C.ar    1  UNL1        0.0525
     10 C          63.7621   82.5223   12.1634 C.ar    1  UNL1        0.1608
     11 F          64.7957   83.2288   11.3372 F       1  UNL1       -0.2025
     12 C          63.4050   81.0975   11.8599 C.ar    1  UNL1        0.1316
     13 N          62.3714   80.3910   12.6861 N.ar    1  UNL1       -0.2078
     14 C          59.2384   80.3419   14.1714 C.3     1  UNL1        0.2542
     15 O          60.6613   80.4030   14.6420 O.3     1  UNL1       -0.4561
     16 C          64.5141   88.9404   14.5073 C.3     1  UNL1        0.2524
     17 O          63.5853   90.0480   14.1068 O.3     1  UNL1       -0.4689
     18 C          63.7206   90.6894   12.7577 C.ar    1  UNL1        0.1388
     19 C          62.7534   90.3461   11.6637 C.ar    1  UNL1        0.0369
     20 C          62.8888   90.9875   10.3144 C.ar    1  UNL1        0.0028
     21 C          63.9912   91.9721   10.0592 C.ar    1  UNL1       -0.0041
     22 C          64.9583   92.3154   11.1532 C.ar    1  UNL1       -0.0191
     23 C          64.8230   91.6741   12.5024 C.ar    1  UNL1        0.0327
     24 C          66.0607   93.3000   10.8980 C.3     1  UNL1        0.0280
     25 C          67.2742   92.8826   10.1214 C.3     1  UNL1        0.0044
     26 C          68.4140   91.9320    9.9043 C.3     1  UNL1        0.0003
     27 C          68.2362   93.1103    8.9932 C.3     1  UNL1        0.0003
     28 C          65.9497   94.7021   11.4195 C.3     1  UNL1        0.0460
     29 C          65.9541   95.8597   10.4656 C.2     1  UNL1        0.0507
     30 O          67.2553   96.4304    9.9848 O.co2   1  UNL1       -0.5492
     31 O          64.6572   96.4466    9.9925 O.co2   1  UNL1       -0.5492
     32 C          62.1429   85.4413   11.4850 C.3     1  UNL1        0.0473
     33 C          61.7087   86.5368   10.5568 C.3     1  UNL1        0.0060
     34 C          62.4280   86.7481    9.2576 C.3     1  UNL1        0.0004
     35 C          60.5551   87.4209   10.9279 C.3     1  UNL1        0.0004
@<TRIPOS>UNITY_ATOM_ATTR
30 1
charge -1
@<TRIPOS>BOND
     1    14    15    1
     2    15     7    1
     3     7     8   ar
     4     8     9   ar
     5     9     1    1
     6     1     2   ar
     7     2     3   ar
     8     3     4   ar
     9     4    16    1
    10    16    17    1
    11    17    18    1
    12    18    19   ar
    13    19    20   ar
    14    20    21   ar
    15    21    22   ar
    16    22    24    1
    17    24    28    1
    18    28    29    1
    19    29    30   ar
    20    29    31   ar
    21    24    25    1
    22    25    26    1
    23    26    27    1
    24    22    23   ar
    25     4     5   ar
    26     5     6   ar
    27     6    32    1
    28    32    33    1
    29    33    34    1
    30    33    35    1
    31     9    10   ar
    32    10    11    1
    33    10    12   ar
    34    12    13   ar
    35    13     7   ar
    36     6     1   ar
    37    23    18   ar
    38    27    25    1
@<TRIPOS>MOLECULE
*****
 35 38 0 0 0
SMALL
GASTEIGER

@<TRIPOS>ATOM
      1 C          63.4381   84.3091   13.3922 C.ar    1  UNL1        0.0972
      2 N          64.2820   84.6090   14.5955 N.ar    1  UNL1       -0.2412
      3 C          64.5796   86.0314   14.9673 C.ar    1  UNL1        0.1172
      4 C          64.0334   87.1540   14.1357 C.ar    1  UNL1        0.1213
      5 N          63.1895   86.8541   12.9323 N.ar    1  UNL1       -0.2472
      6 C          62.8919   85.4316   12.5606 C.ar    1  UNL1        0.0764
      7 C          61.8479   80.6734   13.4454 C.ar    1  UNL1        0.2252
      8 C          62.1456   82.0958   13.8171 C.ar    1  UNL1        0.0615
      9 C          63.1405   82.8867   13.0205 C.ar    1  UNL1        0.0525
     10 C          63.8378   82.2552   11.8522 C.ar    1  UNL1        0.1608
     11 F          64.8327   83.0461   11.0555 F       1  UNL1       -0.2025
     12 C          63.5401   80.8328   11.4805 C.ar    1  UNL1        0.1316
     13 N          62.5452   80.0419   12.2771 N.ar    1  UNL1       -0.2078
     14 C          59.4105   80.2932   14.2604 C.3     1  UNL1        0.2542
     15 O          60.8530   79.8825   14.2420 O.3     1  UNL1       -0.4561
     16 C          64.3310   88.5763   14.5074 C.3     1  UNL1        0.2524
     17 O          63.3929   89.6715   14.0944 O.3     1  UNL1       -0.4689
     18 C          63.6611   90.4574   12.8453 C.ar    1  UNL1        0.1388
     19 C          62.8322   90.2207   11.6178 C.ar    1  UNL1        0.0369
     20 C          63.1004   91.0067   10.3686 C.ar    1  UNL1        0.0028
     21 C          64.1975   92.0294   10.3470 C.ar    1  UNL1       -0.0041
     22 C          65.0264   92.2661   11.5746 C.ar    1  UNL1       -0.0191
     23 C          64.7582   91.4802   12.8237 C.ar    1  UNL1        0.0327
     24 C          66.1235   93.2888   11.5530 C.3     1  UNL1        0.0280
     25 C          66.9328   93.4943   10.3069 C.3     1  UNL1        0.0044
     26 C          67.2661   94.3124    9.0947 C.3     1  UNL1        0.0003
     27 C          68.0013   93.0323    9.3610 C.3     1  UNL1        0.0003
     28 C          66.4113   94.1059   12.7776 C.3     1  UNL1        0.0460
     29 C          66.9010   93.4370   14.0276 C.2     1  UNL1        0.0507
     30 O          65.9950   93.3143   15.2168 O.co2   1  UNL1       -0.5492
     31 O          68.2967   92.8907   14.0885 O.co2   1  UNL1       -0.5492
     32 C          62.0481   85.1318   11.3573 C.3     1  UNL1        0.0473
     33 C          62.4027   85.7249   10.0259 C.3     1  UNL1        0.0060
     34 C          61.9784   87.1241    9.6911 C.3     1  UNL1        0.0004
     35 C          63.1817   84.9187    9.0293 C.3     1  UNL1        0.0004
@<TRIPOS>UNITY_ATOM_ATTR
30 1
charge -1
@<TRIPOS>BOND
     1    14    15    1
     2    15     7    1
     3     7     8   ar
     4     8     9   ar
     5     9     1    1
     6     1     2   ar
     7     2     3   ar
     8     3     4   ar
     9     4    16    1
    10    16    17    1
    11    17    18    1
    12    18    19   ar
    13    19    20   ar
    14    20    21   ar
    15    21    22   ar
    16    22    24    1
    17    24    28    1
    18    28    29    1
    19    29    30   ar
    20    29    31   ar
    21    24    25    1
    22    25    26    1
    23    26    27    1
    24    22    23   ar
    25     4     5   ar
    26     5     6   ar
    27     6    32    1
    28    32    33    1
    29    33    34    1
    30    33    35    1
    31     9    10   ar
    32    10    11    1
    33    10    12   ar
    34    12    13   ar
    35    13     7   ar
    36     6     1   ar
    37    23    18   ar
    38    27    25    1
@<TRIPOS>MOLECULE
*****
 35 38 0 0 0
SMALL
GASTEIGER

@<TRIPOS>ATOM
      1 C          62.2224   87.3370   10.7104 C.ar    1  UNL1        0.0972
      2 N          62.4677   88.8134   10.8101 N.ar    1  UNL1       -0.2412
      3 C          63.1654   89.3784   12.0117 C.ar    1  UNL1        0.1172
      4 C          63.6179   88.4669   13.1137 C.ar    1  UNL1        0.1213
      5 N          63.3727   86.9904   13.0141 N.ar    1  UNL1       -0.2472
      6 C          62.6749   86.4255   11.8124 C.ar    1  UNL1        0.0764
      7 C          61.5801   85.3422    7.3402 C.ar    1  UNL1        0.2252
      8 C          62.2778   85.9072    8.5418 C.ar    1  UNL1        0.0615
      9 C          61.5247   86.7720    9.5087 C.ar    1  UNL1        0.0525
     10 C          60.0739   87.0719    9.2739 C.ar    1  UNL1        0.1608
     11 F          59.3207   87.9367   10.2408 F       1  UNL1       -0.2025
     12 C          59.3762   86.5069    8.0723 C.ar    1  UNL1        0.1316
     13 N          60.1293   85.6421    7.1054 N.ar    1  UNL1       -0.2078
     14 C          61.7109   84.1014    5.0613 C.3     1  UNL1        0.2542
     15 O          62.3333   84.4774    6.3733 O.3     1  UNL1       -0.4561
     16 C          64.3156   89.0319   14.3154 C.3     1  UNL1        0.2524
     17 O          64.0223   90.4331   14.7631 O.3     1  UNL1       -0.4689
     18 C          65.0145   91.5272   14.5016 C.ar    1  UNL1        0.1388
     19 C          65.8586   92.0578   15.6223 C.ar    1  UNL1        0.0369
     20 C          66.8508   93.1520   15.3608 C.ar    1  UNL1        0.0028
     21 C          66.9989   93.7155   13.9786 C.ar    1  UNL1       -0.0041
     22 C          66.1547   93.1850   12.8579 C.ar    1  UNL1       -0.0191
     23 C          65.1625   92.0909   13.1194 C.ar    1  UNL1        0.0327
     24 C          66.3027   93.7486   11.4758 C.3     1  UNL1        0.0280
     25 C          65.9966   95.1943   11.2186 C.3     1  UNL1        0.0044
     26 C          65.3761   96.2585   10.3627 C.3     1  UNL1        0.0003
     27 C          66.0870   96.6342   11.6290 C.3     1  UNL1        0.0003
     28 C          66.7569   92.8665   10.3507 C.3     1  UNL1        0.0460
     29 C          67.8578   93.3208    9.4389 C.2     1  UNL1        0.0507
     30 O          67.5547   94.2535    8.3039 O.co2   1  UNL1       -0.5492
     31 O          69.2619   92.8424    9.6621 O.co2   1  UNL1       -0.5492
     32 C          62.4297   84.9490   11.7127 C.3     1  UNL1        0.0473
     33 C          63.5885   83.9974   11.6714 C.3     1  UNL1        0.0060
     34 C          63.9934   83.3646   10.3731 C.3     1  UNL1        0.0004
     35 C          64.3424   83.6786   12.9283 C.3     1  UNL1        0.0004
@<TRIPOS>UNITY_ATOM_ATTR
30 1
charge -1
@<TRIPOS>BOND
     1    14    15    1
     2    15     7    1
     3     7     8   ar
     4     8     9   ar
     5     9     1    1
     6     1     2   ar
     7     2     3   ar
     8     3     4   ar
     9     4    16    1
    10    16    17    1
    11    17    18    1
    12    18    19   ar
    13    19    20   ar
    14    20    21   ar
    15    21    22   ar
    16    22    24    1
    17    24    28    1
    18    28    29    1
    19    29    30   ar
    20    29    31   ar
    21    24    25    1
    22    25    26    1
    23    26    27    1
    24    22    23   ar
    25     4     5   ar
    26     5     6   ar
    27     6    32    1
    28    32    33    1
    29    33    34    1
    30    33    35    1
    31     9    10   ar
    32    10    11    1
    33    10    12   ar
    34    12    13   ar
    35    13     7   ar
    36     6     1   ar
    37    23    18   ar
    38    27    25    1
@<TRIPOS>MOLECULE
*****
 35 38 0 0 0
SMALL
GASTEIGER

@<TRIPOS>ATOM
      1 C          62.5525   86.1573   11.4390 C.ar    1  UNL1        0.0972
      2 N          63.2719   87.1424   12.3119 N.ar    1  UNL1       -0.2412
      3 C          63.0766   88.6145   12.1003 C.ar    1  UNL1        0.1172
      4 C          62.1618   89.1015   11.0159 C.ar    1  UNL1        0.1213
      5 N          61.4423   88.1164   10.1430 N.ar    1  UNL1       -0.2472
      6 C          61.6377   86.6442   10.3546 C.ar    1  UNL1        0.0764
      7 C          62.4245   82.5592   13.1086 C.ar    1  UNL1        0.2252
      8 C          62.2291   84.0312   12.8969 C.ar    1  UNL1        0.0615
      9 C          62.7478   84.6851   11.6506 C.ar    1  UNL1        0.0525
     10 C          63.4618   83.8670   10.6158 C.ar    1  UNL1        0.1608
     11 F          63.9805   84.5209    9.3695 F       1  UNL1       -0.2025
     12 C          63.6572   82.3949   10.8275 C.ar    1  UNL1        0.1316
     13 N          63.1385   81.7410   12.0738 N.ar    1  UNL1       -0.2078
     14 C          60.9102   80.7877   14.2569 C.3     1  UNL1        0.2542
     15 O          61.9058   81.9053   14.3549 O.3     1  UNL1       -0.4561
     16 C          61.9665   90.5736   10.8043 C.3     1  UNL1        0.2524
     17 O          63.0257   91.3789   10.1119 O.3     1  UNL1       -0.4689
     18 C          64.1614   91.9603   10.9007 C.ar    1  UNL1        0.1388
     19 C          65.0077   93.0473   10.3072 C.ar    1  UNL1        0.0369
     20 C          66.1434   93.6287   11.0960 C.ar    1  UNL1        0.0028
     21 C          66.4327   93.1232   12.4783 C.ar    1  UNL1       -0.0041
     22 C          65.5863   92.0363   13.0718 C.ar    1  UNL1       -0.0191
     23 C          64.4507   91.4548   12.2830 C.ar    1  UNL1        0.0327
     24 C          65.8756   91.5308   14.4541 C.3     1  UNL1        0.0280
     25 C          66.9829   92.1427   15.2600 C.3     1  UNL1        0.0044
     26 C          67.5650   93.3205   15.9838 C.3     1  UNL1        0.0003
     27 C          68.3187   92.0246   15.9320 C.3     1  UNL1        0.0003
     28 C          65.0576   90.4134   15.0305 C.3     1  UNL1        0.0460
     29 C          63.7579   90.7122   15.7173 C.2     1  UNL1        0.0507
     30 O          63.6140   91.9574   16.5411 O.co2   1  UNL1       -0.5492
     31 O          62.6022   89.7659   15.5801 O.co2   1  UNL1       -0.5492
     32 C          60.9182   85.6591    9.4817 C.3     1  UNL1        0.0473
     33 C          60.7770   85.9227    8.0118 C.3     1  UNL1        0.0060
     34 C          59.6891   86.8270    7.5131 C.3     1  UNL1        0.0004
     35 C          61.7237   85.2821    7.0406 C.3     1  UNL1        0.0004
@<TRIPOS>UNITY_ATOM_ATTR
30 1
charge -1
@<TRIPOS>BOND
     1    14    15    1
     2    15     7    1
     3     7     8   ar
     4     8     9   ar
     5     9     1    1
     6     1     2   ar
     7     2     3   ar
     8     3     4   ar
     9     4    16    1
    10    16    17    1
    11    17    18    1
    12    18    19   ar
    13    19    20   ar
    14    20    21   ar
    15    21    22   ar
    16    22    24    1
    17    24    28    1
    18    28    29    1
    19    29    30   ar
    20    29    31   ar
    21    24    25    1
    22    25    26    1
    23    26    27    1
    24    22    23   ar
    25     4     5   ar
    26     5     6   ar
    27     6    32    1
    28    32    33    1
    29    33    34    1
    30    33    35    1
    31     9    10   ar
    32    10    11    1
    33    10    12   ar
    34    12    13   ar
    35    13     7   ar
    36     6     1   ar
    37    23    18   ar
    38    27    25    1
@<TRIPOS>MOLECULE
*****
 35 38 0 0 0
SMALL
GASTEIGER

@<TRIPOS>ATOM
      1 C          62.3983   85.1429   11.3779 C.ar    1  UNL1        0.0972
      2 N          61.4242   85.6629   10.3626 N.ar    1  UNL1       -0.2412
      3 C          61.1074   87.1280   10.3089 C.ar    1  UNL1        0.1172
      4 C          61.7648   88.0733   11.2705 C.ar    1  UNL1        0.1213
      5 N          62.7388   87.5533   12.2857 N.ar    1  UNL1       -0.2472
      6 C          63.0556   86.0880   12.3395 C.ar    1  UNL1        0.0764
      7 C          62.4982   81.3704   12.6063 C.ar    1  UNL1        0.2252
      8 C          62.1815   82.8356   12.5525 C.ar    1  UNL1        0.0615
      9 C          62.7150   83.6776   11.4316 C.ar    1  UNL1        0.0525
     10 C          63.5652   83.0545   10.3645 C.ar    1  UNL1        0.1608
     11 F          64.0987   83.8965    9.2436 F       1  UNL1       -0.2025
     12 C          63.8819   81.5893   10.4182 C.ar    1  UNL1        0.1316
     13 N          63.3484   80.7473   11.5391 N.ar    1  UNL1       -0.2078
     14 C          60.5312   80.6609   14.1481 C.3     1  UNL1        0.2542
     15 O          61.9648   80.5284   13.7271 O.3     1  UNL1       -0.4561
     16 C          61.4480   89.5384   11.2167 C.3     1  UNL1        0.2524
     17 O          62.2946   90.4589   10.3885 O.3     1  UNL1       -0.4689
     18 C          63.4684   91.1583   11.0074 C.ar    1  UNL1        0.1388
     19 C          64.2269   92.1878   10.2234 C.ar    1  UNL1        0.0369
     20 C          65.4007   92.8872   10.8423 C.ar    1  UNL1        0.0028
     21 C          65.8161   92.5570   12.2453 C.ar    1  UNL1       -0.0041
     22 C          65.0577   91.5274   13.0294 C.ar    1  UNL1       -0.0191
     23 C          63.8839   90.8281   12.4105 C.ar    1  UNL1        0.0327
     24 C          65.4730   91.1972   14.4323 C.3     1  UNL1        0.0280
     25 C          66.6352   91.9099   15.0579 C.3     1  UNL1        0.0044
     26 C          67.1711   92.8997   16.0494 C.3     1  UNL1        0.0003
     27 C          68.1122   92.1546   15.1498 C.3     1  UNL1        0.0003
     28 C          64.7262   90.1542   15.2098 C.3     1  UNL1        0.0460
     29 C          63.5035   90.5337   15.9915 C.2     1  UNL1        0.0507
     30 O          63.4411   91.8601   16.6892 O.co2   1  UNL1       -0.5492
     31 O          62.3431   89.5868   16.0754 O.co2   1  UNL1       -0.5492
     32 C          64.0296   85.5680   13.3547 C.3     1  UNL1        0.0473
     33 C          63.6575   85.5445   14.8077 C.3     1  UNL1        0.0060
     34 C          62.8274   84.4196   15.3512 C.3     1  UNL1        0.0004
     35 C          64.1156   86.6459   15.7171 C.3     1  UNL1        0.0004
@<TRIPOS>UNITY_ATOM_ATTR
30 1
charge -1
@<TRIPOS>BOND
     1    14    15    1
     2    15     7    1
     3     7     8   ar
     4     8     9   ar
     5     9     1    1
     6     1     2   ar
     7     2     3   ar
     8     3     4   ar
     9     4    16    1
    10    16    17    1
    11    17    18    1
    12    18    19   ar
    13    19    20   ar
    14    20    21   ar
    15    21    22   ar
    16    22    24    1
    17    24    28    1
    18    28    29    1
    19    29    30   ar
    20    29    31   ar
    21    24    25    1
    22    25    26    1
    23    26    27    1
    24    22    23   ar
    25     4     5   ar
    26     5     6   ar
    27     6    32    1
    28    32    33    1
    29    33    34    1
    30    33    35    1
    31     9    10   ar
    32    10    11    1
    33    10    12   ar
    34    12    13   ar
    35    13     7   ar
    36     6     1   ar
    37    23    18   ar
    38    27    25    1
@<TRIPOS>MOLECULE
*****
 35 38 0 0 0
SMALL
GASTEIGER

@<TRIPOS>ATOM
      1 C          63.1359   86.5376   12.7292 C.ar    1  UNL1        0.0972
      2 N          63.5240   87.8117   13.4190 N.ar    1  UNL1       -0.2412
      3 C          63.2989   89.1305   12.7408 C.ar    1  UNL1        0.1172
      4 C          62.6857   89.1752   11.3725 C.ar    1  UNL1        0.1213
      5 N          62.2976   87.9011   10.6826 N.ar    1  UNL1       -0.2472
      6 C          62.5227   86.5822   11.3610 C.ar    1  UNL1        0.0764
      7 C          62.6758   82.7431   13.7972 C.ar    1  UNL1        0.2252
      8 C          62.4508   84.0619   13.1189 C.ar    1  UNL1        0.0615
      9 C          63.3610   85.2187   13.4075 C.ar    1  UNL1        0.0525
     10 C          64.4962   85.0568   14.3744 C.ar    1  UNL1        0.1608
     11 F          65.4064   86.2136   14.6631 F       1  UNL1       -0.2025
     12 C          64.7212   83.7380   15.0527 C.ar    1  UNL1        0.1316
     13 N          63.8111   82.5812   14.7641 N.ar    1  UNL1       -0.2078
     14 C          62.3326   80.2062   13.3545 C.3     1  UNL1        0.2542
     15 O          61.7656   81.5863   13.5086 O.3     1  UNL1       -0.4561
     16 C          62.4606   90.4940   10.6942 C.3     1  UNL1        0.2524
     17 O          63.6152   91.2276   10.0789 O.3     1  UNL1       -0.4689
     18 C          64.5382   92.0338   10.9437 C.ar    1  UNL1        0.1388
     19 C          65.1331   93.3081   10.4217 C.ar    1  UNL1        0.0369
     20 C          66.0561   94.1144   11.2867 C.ar    1  UNL1        0.0028
     21 C          66.3843   93.6464   12.6734 C.ar    1  UNL1       -0.0041
     22 C          65.7895   92.3721   13.1954 C.ar    1  UNL1       -0.0191
     23 C          64.8665   91.5658   12.3306 C.ar    1  UNL1        0.0327
     24 C          66.1176   91.9041   14.5822 C.3     1  UNL1        0.0280
     25 C          67.2891   92.4893   15.3137 C.3     1  UNL1        0.0044
     26 C          68.0658   93.6864   15.7758 C.3     1  UNL1        0.0003
     27 C          68.5415   92.3058   16.1185 C.3     1  UNL1        0.0003
     28 C          65.2743   90.8508   15.2376 C.3     1  UNL1        0.0460
     29 C          64.1149   91.2489   16.1020 C.2     1  UNL1        0.0507
     30 O          62.9442   90.3243   16.2591 O.co2   1  UNL1       -0.5492
     31 O          64.1261   92.5716   16.8094 O.co2   1  UNL1       -0.5492
     32 C          62.1345   85.3081   10.6711 C.3     1  UNL1        0.0473
     33 C          63.0072   84.7454    9.5886 C.3     1  UNL1        0.0060
     34 C          62.9981   85.3624    8.2213 C.3     1  UNL1        0.0004
     35 C          63.8890   83.5659    9.8733 C.3     1  UNL1        0.0004
@<TRIPOS>UNITY_ATOM_ATTR
30 1
charge -1
@<TRIPOS>BOND
     1    14    15    1
     2    15     7    1
     3     7     8   ar
     4     8     9   ar
     5     9     1    1
     6     1     2   ar
     7     2     3   ar
     8     3     4   ar
     9     4    16    1
    10    16    17    1
    11    17    18    1
    12    18    19   ar
    13    19    20   ar
    14    20    21   ar
    15    21    22   ar
    16    22    24    1
    17    24    28    1
    18    28    29    1
    19    29    30   ar
    20    29    31   ar
    21    24    25    1
    22    25    26    1
    23    26    27    1
    24    22    23   ar
    25     4     5   ar
    26     5     6   ar
    27     6    32    1
    28    32    33    1
    29    33    34    1
    30    33    35    1
    31     9    10   ar
    32    10    11    1
    33    10    12   ar
    34    12    13   ar
    35    13     7   ar
    36     6     1   ar
    37    23    18   ar
    38    27    25    1
@<TRIPOS>MOLECULE
*****
 35 38 0 0 0
SMALL
GASTEIGER

@<TRIPOS>ATOM
      1 C          62.8491   85.5371   12.0304 C.ar    1  UNL1        0.0972
      2 N          63.6519   86.2321   13.0899 N.ar    1  UNL1       -0.2412
      3 C          63.5511   87.7199   13.2522 C.ar    1  UNL1        0.1172
      4 C          62.6474   88.5127   12.3551 C.ar    1  UNL1        0.1213
      5 N          61.8446   87.8177   11.2956 N.ar    1  UNL1       -0.2472
      6 C          61.9454   86.3299   11.1333 C.ar    1  UNL1        0.0764
      7 C          62.5366   81.6530   12.7830 C.ar    1  UNL1        0.2252
      8 C          62.4358   83.1408   12.9452 C.ar    1  UNL1        0.0615
      9 C          62.9500   84.0493   11.8681 C.ar    1  UNL1        0.0525
     10 C          63.5650   83.4701   10.6287 C.ar    1  UNL1        0.1608
     11 F          64.0792   84.3786    9.5515 F       1  UNL1       -0.2025
     12 C          63.6658   81.9823   10.4664 C.ar    1  UNL1        0.1316
     13 N          63.1516   81.0738   11.5436 N.ar    1  UNL1       -0.2078
     14 C          60.5479   80.6456   14.1173 C.3     1  UNL1        0.2542
     15 O          62.0224   80.7445   13.8601 O.3     1  UNL1       -0.4561
     16 C          62.5466   90.0004   12.5174 C.3     1  UNL1        0.2524
     17 O          63.2328   90.6777   13.6665 O.3     1  UNL1       -0.4689
     18 C          64.5892   91.2889   13.4753 C.ar    1  UNL1        0.1388
     19 C          65.6622   91.0690   14.5001 C.ar    1  UNL1        0.0369
     20 C          67.0186   91.6802   14.3089 C.ar    1  UNL1        0.0028
     21 C          67.3021   92.5113   13.0928 C.ar    1  UNL1       -0.0041
     22 C          66.2291   92.7312   12.0679 C.ar    1  UNL1       -0.0191
     23 C          64.8727   92.1200   12.2591 C.ar    1  UNL1        0.0327
     24 C          66.5125   93.5622   10.8518 C.3     1  UNL1        0.0280
     25 C          67.6062   93.1605    9.9071 C.3     1  UNL1        0.0044
     26 C          68.6760   93.5339    8.9242 C.3     1  UNL1        0.0003
     27 C          68.4306   92.0913    9.2536 C.3     1  UNL1        0.0003
     28 C          65.7023   94.7951   10.5804 C.3     1  UNL1        0.0460
     29 C          66.2567   96.1468   10.9200 C.2     1  UNL1        0.0507
     30 O          67.1553   96.8544    9.9494 O.co2   1  UNL1       -0.5492
     31 O          65.9127   96.7910   12.2303 O.co2   1  UNL1       -0.5492
     32 C          61.1426   85.6349   10.0738 C.3     1  UNL1        0.0473
     33 C          60.6473   86.4023    8.8839 C.3     1  UNL1        0.0060
     34 C          59.9100   87.6940    9.0784 C.3     1  UNL1        0.0004
     35 C          60.8893   85.8780    7.4995 C.3     1  UNL1        0.0004
@<TRIPOS>UNITY_ATOM_ATTR
30 1
charge -1
@<TRIPOS>BOND
     1    14    15    1
     2    15     7    1
     3     7     8   ar
     4     8     9   ar
     5     9     1    1
     6     1     2   ar
     7     2     3   ar
     8     3     4   ar
     9     4    16    1
    10    16    17    1
    11    17    18    1
    12    18    19   ar
    13    19    20   ar
    14    20    21   ar
    15    21    22   ar
    16    22    24    1
    17    24    28    1
    18    28    29    1
    19    29    30   ar
    20    29    31   ar
    21    24    25    1
    22    25    26    1
    23    26    27    1
    24    22    23   ar
    25     4     5   ar
    26     5     6   ar
    27     6    32    1
    28    32    33    1
    29    33    34    1
    30    33    35    1
    31     9    10   ar
    32    10    11    1
    33    10    12   ar
    34    12    13   ar
    35    13     7   ar
    36     6     1   ar
    37    23    18   ar
    38    27    25    1
