@<TRIPOS>MOLECULE
*****
 26 29 0 0 0
SMALL
GASTEIGER

@<TRIPOS>ATOM
      1 C          61.8211   87.8994   11.2445 C.2     1  UNL1        0.0069
      2 C          62.5764   86.7594   11.8606 C.ar    1  UNL1        0.0391
      3 C          63.2620   86.9413   13.1824 C.ar    1  UNL1        0.0145
      4 C          64.0174   85.8012   13.7985 C.ar    1  UNL1        0.0576
      5 CL         64.7030   85.9830   15.1202 Cl      1  UNL1       -0.0823
      6 C          64.0873   84.4793   13.0930 C.ar    1  UNL1        0.0108
      7 C          63.4017   84.2974   11.7714 C.ar    1  UNL1        0.0219
      8 C          63.4715   82.9756   11.0658 C.3     1  UNL1        0.0349
      9 C          62.6462   85.4376   11.1551 C.ar    1  UNL1        0.1887
     10 N          61.9606   85.2557    9.8334 N.2     1  UNL1       -0.0363
     11 C          61.2052   86.3957    9.2172 C.2     1  UNL1        0.3865
     12 N          60.4356   86.5133    7.9352 N.2     1  UNL1        0.0818
     13 N          59.8901   87.9079    7.8483 N.2     1  UNL1       -0.0421
     14 C          60.3226   88.6522    9.0767 C.2     1  UNL1        0.0990
     15 C          59.9991   90.0803    9.4019 C.3     1  UNL1        0.0523
     16 C          61.1355   87.7176    9.9228 C.3     1  UNL1        0.1749
     17 C          61.7513   89.2213   11.9500 C.3     1  UNL1        0.1551
     18 O          60.5586   89.5584   12.7951 O.3     1  UNL1       -0.3758
     19 H          59.9308   88.8191   12.7780 H       1  UNL1        0.2112
     20 C          66.2426   93.1605   11.3922 C.3     1  UNL1        0.0737
     21 C          65.1197   92.1757   11.5316 C.ar    1  UNL1        0.1396
     22 N          64.2613   91.8443   10.3471 N.ar    1  UNL1       -0.2294
     23 C          63.1384   90.8595   10.4865 C.ar    1  UNL1        0.1001
     24 C          62.8741   90.2061   11.8106 C.ar    1  UNL1        0.0465
     25 C          63.7325   90.5374   12.9952 C.ar    1  UNL1        0.1001
     26 N          64.8553   91.5222   12.8558 N.ar    1  UNL1       -0.2294
@<TRIPOS>BOND
     1    20    21    1
     2    21    22   ar
     3    22    23   ar
     4    23    24   ar
     5    24    17    1
     6    17    18    1
     7    17     1    1
     8     1     2    2
     9     2     3   ar
    10     3     4   ar
    11     4     5    1
    12     4     6   ar
    13     6     7   ar
    14     7     8    1
    15     7     9   ar
    16     9    10    2
    17    10    11    1
    18    11    12    2
    19    12    13    1
    20    13    14    2
    21    14    15    1
    22    14    16    1
    23    24    25   ar
    24    25    26   ar
    25    26    21   ar
    26    16     1    1
    27     9     2   ar
    28    16    11    1
    29    18    19    1
@<TRIPOS>MOLECULE
*****
 26 29 0 0 0
SMALL
GASTEIGER

@<TRIPOS>ATOM
      1 C          61.9593   87.2462   11.4246 C.2     1  UNL1        0.0069
      2 C          62.5620   86.1012   12.1833 C.ar    1  UNL1        0.0391
      3 C          62.0982   84.6994   11.9189 C.ar    1  UNL1        0.0145
      4 C          62.7009   83.5544   12.6777 C.ar    1  UNL1        0.0576
      5 CL         62.2372   82.1526   12.4133 Cl      1  UNL1       -0.0823
      6 C          63.7674   83.8111   13.7008 C.ar    1  UNL1        0.0108
      7 C          64.2311   85.2129   13.9652 C.ar    1  UNL1        0.0219
      8 C          65.2976   85.4697   14.9883 C.3     1  UNL1        0.0349
      9 C          63.6284   86.3580   13.2064 C.ar    1  UNL1        0.1887
     10 N          64.0922   87.7598   13.4708 N.2     1  UNL1       -0.0363
     11 C          63.4895   88.9048   12.7120 C.2     1  UNL1        0.3865
     12 N          63.7428   90.3826   12.7567 N.2     1  UNL1        0.0818
     13 N          62.8328   91.0391   11.7612 N.2     1  UNL1       -0.0421
     14 C          62.0172   89.9671   11.1013 C.2     1  UNL1        0.0990
     15 C          60.9782   90.1773   10.0401 C.3     1  UNL1        0.0523
     16 C          62.4231   88.6480   11.6889 C.3     1  UNL1        0.1749
     17 C          60.8929   86.9894   10.4015 C.3     1  UNL1        0.1551
     18 O          59.4866   87.4469   10.6528 O.3     1  UNL1       -0.3758
     19 H          59.4392   87.8874   11.5157 H       1  UNL1        0.2112
     20 C          62.2519   84.1319    5.3036 C.3     1  UNL1        0.0737
     21 C          61.9122   84.8463    6.5781 C.ar    1  UNL1        0.1396
     22 N          62.9718   85.0758    7.6146 N.ar    1  UNL1       -0.2294
     23 C          62.6321   85.7902    8.8891 C.ar    1  UNL1        0.1001
     24 C          61.2326   86.2750    9.1270 C.ar    1  UNL1        0.0465
     25 C          60.1729   86.0454    8.0905 C.ar    1  UNL1        0.1001
     26 N          60.5127   85.3311    6.8160 N.ar    1  UNL1       -0.2294
@<TRIPOS>BOND
     1    20    21    1
     2    21    22   ar
     3    22    23   ar
     4    23    24   ar
     5    24    17    1
     6    17    18    1
     7    17     1    1
     8     1     2    2
     9     2     3   ar
    10     3     4   ar
    11     4     5    1
    12     4     6   ar
    13     6     7   ar
    14     7     8    1
    15     7     9   ar
    16     9    10    2
    17    10    11    1
    18    11    12    2
    19    12    13    1
    20    13    14    2
    21    14    15    1
    22    14    16    1
    23    24    25   ar
    24    25    26   ar
    25    26    21   ar
    26    16     1    1
    27     9     2   ar
    28    16    11    1
    29    18    19    1
@<TRIPOS>MOLECULE
*****
 26 29 0 0 0
SMALL
GASTEIGER

@<TRIPOS>ATOM
      1 C          61.7064   87.2074   10.8202 C.2     1  UNL1        0.0069
      2 C          62.5244   86.1336   11.4743 C.ar    1  UNL1        0.0391
      3 C          63.0548   86.3359   12.8628 C.ar    1  UNL1        0.0145
      4 C          63.8727   85.2621   13.5170 C.ar    1  UNL1        0.0576
      5 CL         64.4031   85.4644   14.9054 Cl      1  UNL1       -0.0823
      6 C          64.1603   83.9861   12.7828 C.ar    1  UNL1        0.0108
      7 C          63.6299   83.7838   11.3944 C.ar    1  UNL1        0.0219
      8 C          63.9174   82.5078   10.6602 C.3     1  UNL1        0.0349
      9 C          62.8119   84.8576   10.7402 C.ar    1  UNL1        0.1887
     10 N          62.2815   84.6553    9.3517 N.2     1  UNL1       -0.0363
     11 C          61.4636   85.7291    8.6975 C.2     1  UNL1        0.3865
     12 N          60.8121   85.8133    7.3490 N.2     1  UNL1        0.0818
     13 N          60.1219   87.1413    7.2498 N.2     1  UNL1       -0.0421
     14 C          60.3468   87.8779    8.5370 C.2     1  UNL1        0.0990
     15 C          59.8328   89.2470    8.8708 C.3     1  UNL1        0.0523
     16 C          61.1760   87.0051    9.4317 C.3     1  UNL1        0.1749
     17 C          61.4189   88.4834   11.5544 C.3     1  UNL1        0.1551
     18 O          60.1072   88.6638   12.2594 O.3     1  UNL1       -0.3758
     19 H          59.5652   87.8679   12.1426 H       1  UNL1        0.2112
     20 C          65.5154   92.8658   11.6714 C.3     1  UNL1        0.0737
     21 C          64.4912   91.7701   11.6422 C.ar    1  UNL1        0.1396
     22 N          64.1644   91.0154   12.8965 N.ar    1  UNL1       -0.2294
     23 C          63.1403   89.9197   12.8673 C.ar    1  UNL1        0.1001
     24 C          62.4430   89.5790   11.5837 C.ar    1  UNL1        0.0465
     25 C          62.7698   90.3338   10.3292 C.ar    1  UNL1        0.1001
     26 N          63.7939   91.4293   10.3585 N.ar    1  UNL1       -0.2294
@<TRIPOS>BOND
     1    20    21    1
     2    21    22   ar
     3    22    23   ar
     4    23    24   ar
     5    24    17    1
     6    17    18    1
     7    17     1    1
     8     1     2    2
     9     2     3   ar
    10     3     4   ar
    11     4     5    1
    12     4     6   ar
    13     6     7   ar
    14     7     8    1
    15     7     9   ar
    16     9    10    2
    17    10    11    1
    18    11    12    2
    19    12    13    1
    20    13    14    2
    21    14    15    1
    22    14    16    1
    23    24    25   ar
    24    25    26   ar
    25    26    21   ar
    26    16     1    1
    27     9     2   ar
    28    16    11    1
    29    18    19    1
@<TRIPOS>MOLECULE
*****
 26 29 0 0 0
SMALL
GASTEIGER

@<TRIPOS>ATOM
      1 C          63.3439   83.9897   12.8305 C.2     1  UNL1        0.0069
      2 C          63.4529   85.0937   13.8401 C.ar    1  UNL1        0.0391
      3 C          63.9634   86.4417   13.4250 C.ar    1  UNL1        0.0145
      4 C          64.0724   87.5458   14.4346 C.ar    1  UNL1        0.0576
      5 CL         64.5829   88.8938   14.0196 Cl      1  UNL1       -0.0823
      6 C          63.6710   87.3018   15.8592 C.ar    1  UNL1        0.0108
      7 C          63.1605   85.9538   16.2742 C.ar    1  UNL1        0.0219
      8 C          62.7591   85.7097   17.6987 C.3     1  UNL1        0.0349
      9 C          63.0515   84.8497   15.2645 C.ar    1  UNL1        0.1887
     10 N          62.5410   83.5016   15.6796 N.2     1  UNL1       -0.0363
     11 C          62.4320   82.3976   14.6700 C.2     1  UNL1        0.3865
     12 N          61.9678   80.9758   14.7838 N.2     1  UNL1        0.0818
     13 N          62.0824   80.3411   13.4295 N.2     1  UNL1       -0.0421
     14 C          62.6174   81.3706   12.4788 C.2     1  UNL1        0.0990
     15 C          62.8886   81.1651   11.0179 C.3     1  UNL1        0.0523
     16 C          62.8335   82.6416   13.2455 C.3     1  UNL1        0.1749
     17 C          63.7454   84.2337   11.4060 C.3     1  UNL1        0.1551
     18 O          65.0811   83.7626   10.9119 O.3     1  UNL1       -0.3758
     19 H          65.5566   83.3234   11.6344 H       1  UNL1        0.2112
     20 C          60.0086   87.0942    7.6838 C.3     1  UNL1        0.0737
     21 C          60.9428   86.3790    8.6144 C.ar    1  UNL1        0.1396
     22 N          60.6991   86.4130   10.0940 N.ar    1  UNL1       -0.2294
     23 C          61.6333   85.6978   11.0246 C.ar    1  UNL1        0.1001
     24 C          62.8112   84.9488   10.4755 C.ar    1  UNL1        0.0465
     25 C          63.0549   84.9148    8.9957 C.ar    1  UNL1        0.1001
     26 N          62.1207   85.6300    8.0652 N.ar    1  UNL1       -0.2294
@<TRIPOS>BOND
     1    20    21    1
     2    21    22   ar
     3    22    23   ar
     4    23    24   ar
     5    24    17    1
     6    17    18    1
     7    17     1    1
     8     1     2    2
     9     2     3   ar
    10     3     4   ar
    11     4     5    1
    12     4     6   ar
    13     6     7   ar
    14     7     8    1
    15     7     9   ar
    16     9    10    2
    17    10    11    1
    18    11    12    2
    19    12    13    1
    20    13    14    2
    21    14    15    1
    22    14    16    1
    23    24    25   ar
    24    25    26   ar
    25    26    21   ar
    26    16     1    1
    27     9     2   ar
    28    16    11    1
    29    18    19    1
@<TRIPOS>MOLECULE
*****
 26 29 0 0 0
SMALL
GASTEIGER

@<TRIPOS>ATOM
      1 C          62.0156   88.1194   11.3679 C.2     1  UNL1        0.0069
      2 C          61.3230   87.9300   10.0510 C.ar    1  UNL1        0.0391
      3 C          60.6012   89.0788    9.4111 C.ar    1  UNL1        0.0145
      4 C          59.9087   88.8893    8.0941 C.ar    1  UNL1        0.0576
      5 CL         59.1869   90.0380    7.4542 Cl      1  UNL1       -0.0823
      6 C          59.9378   87.5511    7.4170 C.ar    1  UNL1        0.0108
      7 C          60.6595   86.4024    8.0569 C.ar    1  UNL1        0.0219
      8 C          60.6887   85.0642    7.3798 C.3     1  UNL1        0.0349
      9 C          61.3522   86.5919    9.3739 C.ar    1  UNL1        0.1887
     10 N          62.0739   85.4430   10.0138 N.2     1  UNL1       -0.0363
     11 C          62.7665   85.6325   11.3308 C.2     1  UNL1        0.3865
     12 N          63.5521   84.6922   12.1960 N.2     1  UNL1        0.0818
     13 N          64.0085   85.4493   13.4079 N.2     1  UNL1       -0.0421
     14 C          63.5049   86.8575   13.2916 C.2     1  UNL1        0.0990
     15 C          63.7295   87.9590   14.2846 C.3     1  UNL1        0.0523
     16 C          62.7373   86.9707   12.0078 C.3     1  UNL1        0.1749
     17 C          61.9864   89.4576   12.0450 C.3     1  UNL1        0.1551
     18 O          60.8643   89.8011   12.9794 O.3     1  UNL1       -0.3758
     19 H          60.2480   89.0540   13.0330 H       1  UNL1        0.2112
     20 C          66.3580   93.4364   11.0160 C.3     1  UNL1        0.0737
     21 C          65.2651   92.4417   11.2732 C.ar    1  UNL1        0.1396
     22 N          64.3545   92.0226   10.1574 N.ar    1  UNL1       -0.2294
     23 C          63.2616   91.0279   10.4146 C.ar    1  UNL1        0.1001
     24 C          63.0793   90.4523   11.7877 C.ar    1  UNL1        0.0465
     25 C          63.9899   90.8714   12.9037 C.ar    1  UNL1        0.1001
     26 N          65.0828   91.8661   12.6464 N.ar    1  UNL1       -0.2294
@<TRIPOS>BOND
     1    20    21    1
     2    21    22   ar
     3    22    23   ar
     4    23    24   ar
     5    24    17    1
     6    17    18    1
     7    17     1    1
     8     1     2    2
     9     2     3   ar
    10     3     4   ar
    11     4     5    1
    12     4     6   ar
    13     6     7   ar
    14     7     8    1
    15     7     9   ar
    16     9    10    2
    17    10    11    1
    18    11    12    2
    19    12    13    1
    20    13    14    2
    21    14    15    1
    22    14    16    1
    23    24    25   ar
    24    25    26   ar
    25    26    21   ar
    26    16     1    1
    27     9     2   ar
    28    16    11    1
    29    18    19    1
@<TRIPOS>MOLECULE
*****
 26 29 0 0 0
SMALL
GASTEIGER

@<TRIPOS>ATOM
      1 C          64.0473   90.8290   13.4734 C.2     1  UNL1        0.0069
      2 C          65.3921   91.4550   13.2514 C.ar    1  UNL1        0.0391
      3 C          66.3575   91.5827   14.3924 C.ar    1  UNL1        0.0145
      4 C          67.7024   92.2088   14.1704 C.ar    1  UNL1        0.0576
      5 CL         68.6678   92.3364   15.3113 Cl      1  UNL1       -0.0823
      6 C          68.0820   92.7072   12.8074 C.ar    1  UNL1        0.0108
      7 C          67.1166   92.5795   11.6665 C.ar    1  UNL1        0.0219
      8 C          67.4961   93.0779   10.3036 C.3     1  UNL1        0.0349
      9 C          65.7716   91.9534   11.8886 C.ar    1  UNL1        0.1887
     10 N          64.8062   91.8257   10.7475 N.2     1  UNL1       -0.0363
     11 C          63.4613   91.1997   10.9696 C.2     1  UNL1        0.3865
     12 N          62.3101   90.9398   10.0438 N.2     1  UNL1        0.0818
     13 N          61.2191   90.2808   10.8346 N.2     1  UNL1       -0.0421
     14 C          61.6960   90.1334   12.2491 C.2     1  UNL1        0.0990
     15 C          60.9229   89.5249   13.3814 C.3     1  UNL1        0.0523
     16 C          63.0819   90.7013   12.3325 C.3     1  UNL1        0.1749
     17 C          63.6678   90.3306   14.8364 C.3     1  UNL1        0.1551
     18 O          63.2858   91.3044   15.9116 O.3     1  UNL1       -0.3758
     19 H          63.3361   92.2079   15.5622 H       1  UNL1        0.2112
     20 C          63.6779   84.4420   15.9876 C.3     1  UNL1        0.0737
     21 C          63.6753   85.9142   15.6999 C.ar    1  UNL1        0.1396
     22 N          63.1591   86.8782   16.7265 N.ar    1  UNL1       -0.2294
     23 C          63.1565   88.3504   16.4387 C.ar    1  UNL1        0.1001
     24 C          63.6703   88.8585   15.1242 C.ar    1  UNL1        0.0465
     25 C          64.1866   87.8944   14.0975 C.ar    1  UNL1        0.1001
     26 N          64.1891   86.4223   14.3853 N.ar    1  UNL1       -0.2294
@<TRIPOS>BOND
     1    20    21    1
     2    21    22   ar
     3    22    23   ar
     4    23    24   ar
     5    24    17    1
     6    17    18    1
     7    17     1    1
     8     1     2    2
     9     2     3   ar
    10     3     4   ar
    11     4     5    1
    12     4     6   ar
    13     6     7   ar
    14     7     8    1
    15     7     9   ar
    16     9    10    2
    17    10    11    1
    18    11    12    2
    19    12    13    1
    20    13    14    2
    21    14    15    1
    22    14    16    1
    23    24    25   ar
    24    25    26   ar
    25    26    21   ar
    26    16     1    1
    27     9     2   ar
    28    16    11    1
    29    18    19    1
@<TRIPOS>MOLECULE
*****
 26 29 0 0 0
SMALL
GASTEIGER

@<TRIPOS>ATOM
      1 C          61.0511   94.5057    1.0471 C.2     1  UNL1        0.0069
      2 C          61.1299   93.4217    2.0809 C.ar    1  UNL1        0.0391
      3 C          59.9600   93.1582    2.9820 C.ar    1  UNL1        0.0145
      4 C          60.0388   92.0742    4.0158 C.ar    1  UNL1        0.0576
      5 CL         58.8690   91.8108    4.9169 Cl      1  UNL1       -0.0823
      6 C          61.2875   91.2537    4.1485 C.ar    1  UNL1        0.0108
      7 C          62.4573   91.5172    3.2474 C.ar    1  UNL1        0.0219
      8 C          63.7060   90.6967    3.3801 C.3     1  UNL1        0.0349
      9 C          62.3785   92.6012    2.2136 C.ar    1  UNL1        0.1887
     10 N          63.5484   92.8646    1.3124 N.2     1  UNL1       -0.0363
     11 C          63.4696   93.9486    0.2786 C.2     1  UNL1        0.3865
     12 N          64.4546   94.4349   -0.7428 N.2     1  UNL1        0.0818
     13 N          63.8146   95.5560   -1.5068 N.2     1  UNL1       -0.0421
     14 C          62.4342   95.7626   -0.9575 C.2     1  UNL1        0.0990
     15 C          61.4413   96.7833   -1.4289 C.3     1  UNL1        0.0523
     16 C          62.2209   94.7691    0.1460 C.3     1  UNL1        0.1749
     17 C          59.8024   95.3262    0.9144 C.3     1  UNL1        0.1551
     18 O          59.5659   96.4863    1.8354 O.3     1  UNL1       -0.3758
     19 H          60.3107   96.5671    2.4516 H       1  UNL1        0.2112
     20 C          55.7538   93.9677   -3.3003 C.3     1  UNL1        0.0737
     21 C          56.7659   94.3074   -2.2466 C.ar    1  UNL1        0.1396
     22 N          57.0148   95.7403   -1.8798 N.ar    1  UNL1       -0.2294
     23 C          58.0270   96.0800   -0.8261 C.ar    1  UNL1        0.1001
     24 C          58.7903   94.9866   -0.1393 C.ar    1  UNL1        0.0465
     25 C          58.5415   93.5535   -0.5060 C.ar    1  UNL1        0.1001
     26 N          57.5293   93.2139   -1.5597 N.ar    1  UNL1       -0.2294
@<TRIPOS>BOND
     1    20    21    1
     2    21    22   ar
     3    22    23   ar
     4    23    24   ar
     5    24    17    1
     6    17    18    1
     7    17     1    1
     8     1     2    2
     9     2     3   ar
    10     3     4   ar
    11     4     5    1
    12     4     6   ar
    13     6     7   ar
    14     7     8    1
    15     7     9   ar
    16     9    10    2
    17    10    11    1
    18    11    12    2
    19    12    13    1
    20    13    14    2
    21    14    15    1
    22    14    16    1
    23    24    25   ar
    24    25    26   ar
    25    26    21   ar
    26    16     1    1
    27     9     2   ar
    28    16    11    1
    29    18    19    1
@<TRIPOS>MOLECULE
*****
 26 29 0 0 0
SMALL
GASTEIGER

@<TRIPOS>ATOM
      1 C          61.7998   86.7380    9.4751 C.2     1  UNL1        0.0069
      2 C          61.7888   87.8196   10.5143 C.ar    1  UNL1        0.0391
      3 C          62.9480   87.9677   11.4549 C.ar    1  UNL1        0.0145
      4 C          62.9370   89.0493   12.4941 C.ar    1  UNL1        0.0576
      5 CL         64.0961   89.1974   13.4346 Cl      1  UNL1       -0.0823
      6 C          61.7670   89.9828   12.5929 C.ar    1  UNL1        0.0108
      7 C          60.6079   89.8346   11.6524 C.ar    1  UNL1        0.0219
      8 C          59.4379   90.7681   11.7511 C.3     1  UNL1        0.0349
      9 C          60.6189   88.7530   10.6131 C.ar    1  UNL1        0.1887
     10 N          59.4597   88.6049    9.6725 N.2     1  UNL1       -0.0363
     11 C          59.4707   87.5233    8.6333 C.2     1  UNL1        0.3865
     12 N          58.4787   87.1366    7.5767 N.2     1  UNL1        0.0818
     13 N          59.0356   85.9641    6.8250 N.2     1  UNL1       -0.0421
     14 C          60.3718   85.6262    7.4170 C.2     1  UNL1        0.0990
     15 C          61.2797   84.5191    6.9698 C.3     1  UNL1        0.0523
     16 C          60.6407   86.5899    8.5346 C.3     1  UNL1        0.1749
     17 C          62.9698   85.8046    9.3764 C.3     1  UNL1        0.1551
     18 O          64.0201   86.0266    8.3285 O.3     1  UNL1       -0.3758
     19 H          63.7924   86.8097    7.8034 H       1  UNL1        0.2112
     20 C          63.4490   81.1829   13.1725 C.3     1  UNL1        0.0737
     21 C          63.3292   82.3383   12.2234 C.ar    1  UNL1        0.1396
     22 N          64.0018   82.2815   10.8839 N.ar    1  UNL1       -0.2294
     23 C          63.8820   83.4369    9.9348 C.ar    1  UNL1        0.1001
     24 C          63.0896   84.6492   10.3254 C.ar    1  UNL1        0.0465
     25 C          62.4170   84.7061   11.6649 C.ar    1  UNL1        0.1001
     26 N          62.5368   83.5507   12.6140 N.ar    1  UNL1       -0.2294
@<TRIPOS>BOND
     1    20    21    1
     2    21    22   ar
     3    22    23   ar
     4    23    24   ar
     5    24    17    1
     6    17    18    1
     7    17     1    1
     8     1     2    2
     9     2     3   ar
    10     3     4   ar
    11     4     5    1
    12     4     6   ar
    13     6     7   ar
    14     7     8    1
    15     7     9   ar
    16     9    10    2
    17    10    11    1
    18    11    12    2
    19    12    13    1
    20    13    14    2
    21    14    15    1
    22    14    16    1
    23    24    25   ar
    24    25    26   ar
    25    26    21   ar
    26    16     1    1
    27     9     2   ar
    28    16    11    1
    29    18    19    1
@<TRIPOS>MOLECULE
*****
 26 29 0 0 0
SMALL
GASTEIGER

@<TRIPOS>ATOM
      1 C          63.4188   85.4010   11.9498 C.2     1  UNL1        0.0069
      2 C          62.6077   86.1065   10.9037 C.ar    1  UNL1        0.0391
      3 C          62.1730   85.3721    9.6700 C.ar    1  UNL1        0.0145
      4 C          61.3619   86.0776    8.6239 C.ar    1  UNL1        0.0576
      5 CL         60.9273   85.3433    7.3903 Cl      1  UNL1       -0.0823
      6 C          60.9854   87.5175    8.8114 C.ar    1  UNL1        0.0108
      7 C          61.4200   88.2518   10.0450 C.ar    1  UNL1        0.0219
      8 C          61.0435   89.6916   10.2326 C.3     1  UNL1        0.0349
      9 C          62.2312   87.5463   11.0912 C.ar    1  UNL1        0.1887
     10 N          62.6658   88.2807   12.3248 N.2     1  UNL1       -0.0363
     11 C          63.4769   87.5752   13.3709 C.2     1  UNL1        0.3865
     12 N          64.0446   88.0360   14.6807 N.2     1  UNL1        0.0818
     13 N          64.7720   86.8809   15.3026 N.2     1  UNL1       -0.0421
     14 C          64.6538   85.7063   14.3772 C.2     1  UNL1        0.0990
     15 C          65.2341   84.3421   14.6057 C.3     1  UNL1        0.0523
     16 C          63.8534   86.1353   13.1834 C.3     1  UNL1        0.1749
     17 C          63.7953   83.9612   11.7622 C.3     1  UNL1        0.1551
     18 O          64.9795   83.5998   10.9153 O.3     1  UNL1       -0.3758
     19 H          65.3865   84.4083   10.5667 H       1  UNL1        0.2112
     20 C          60.5646   79.6475   14.3995 C.3     1  UNL1        0.0737
     21 C          61.3723   80.7260   13.7402 C.ar    1  UNL1        0.1396
     22 N          61.3855   82.1110   14.3156 N.ar    1  UNL1       -0.2294
     23 C          62.1931   83.1895   13.6563 C.ar    1  UNL1        0.1001
     24 C          62.9876   82.8828   12.4216 C.ar    1  UNL1        0.0465
     25 C          62.9745   81.4976   11.8460 C.ar    1  UNL1        0.1001
     26 N          62.1668   80.4192   12.5053 N.ar    1  UNL1       -0.2294
@<TRIPOS>BOND
     1    20    21    1
     2    21    22   ar
     3    22    23   ar
     4    23    24   ar
     5    24    17    1
     6    17    18    1
     7    17     1    1
     8     1     2    2
     9     2     3   ar
    10     3     4   ar
    11     4     5    1
    12     4     6   ar
    13     6     7   ar
    14     7     8    1
    15     7     9   ar
    16     9    10    2
    17    10    11    1
    18    11    12    2
    19    12    13    1
    20    13    14    2
    21    14    15    1
    22    14    16    1
    23    24    25   ar
    24    25    26   ar
    25    26    21   ar
    26    16     1    1
    27     9     2   ar
    28    16    11    1
    29    18    19    1
