@<TRIPOS>MOLECULE
*****
 23 26 0 0 0
SMALL
GASTEIGER

@<TRIPOS>ATOM
      1 C          63.1543   84.3854   12.8752 C.3     1  UNL1        0.0409
      2 C          63.2662   82.9267   13.2060 C.3     1  UNL1        0.0707
      3 N          63.9391   82.4950   14.4751 N.3     1  UNL1       -0.2974
      4 C          64.5001   83.5220   15.4135 C.3     1  UNL1        0.0689
      5 C          64.3882   84.9808   15.0827 C.3     1  UNL1        0.0212
      6 C          63.7153   85.4125   13.8135 C.3     1  UNL1        0.0234
      7 C          63.0424   85.8443   12.5443 C.3     1  UNL1        0.0078
      8 H          64.7133   81.8878   14.2061 H       1  UNL1        0.1232
      9 C          63.4561   83.9773   13.4628 C.ar    1  UNL1       -0.0218
     10 C          64.4010   83.2439   12.5576 C.ar    1  UNL1       -0.0034
     11 C          64.1418   81.8088   12.2069 C.ar    1  UNL1        0.0119
     12 C          62.9376   81.1069   12.7613 C.ar    1  UNL1        0.0682
     13 CL         62.6784   79.6717   12.4105 Cl      1  UNL1       -0.0814
     14 C          61.9927   81.8402   13.6664 C.ar    1  UNL1        0.0679
     15 CL         60.7885   81.1384   14.2208 Cl      1  UNL1       -0.0814
     16 C          62.2519   83.2755   14.0172 C.ar    1  UNL1        0.0080
     17 C          62.4420   84.0418   11.6006 C.3     1  UNL1        0.1290
     18 C          60.2132   88.1991    9.2279 C.3     1  UNL1        0.0540
     19 C          61.1063   87.0278    9.5114 C.ar    1  UNL1        0.0805
     20 C          62.1975   86.5148    8.6190 C.ar    1  UNL1        0.0367
     21 C          62.8307   85.3338    9.2930 C.ar    1  UNL1        0.0963
     22 N          62.1308   85.1169   10.6020 N.ar    1  UNL1       -0.2497
     23 N          61.0651   86.1638   10.7369 N.ar    1  UNL1       -0.1736
@<TRIPOS>BOND
     1    18    19    1
     2    19    20   ar
     3    20    21   ar
     4    21    22   ar
     5    22    17    1
     6    17     1    1
     7     1     2    1
     8     2     3    1
     9     3     4    1
    10     4     5    1
    11     5     6    1
    12     6     9    1
    13     9    10   ar
    14    10    11   ar
    15    11    12   ar
    16    12    13    1
    17    12    14   ar
    18    14    15    1
    19    14    16   ar
    20     6     7    1
    21    22    23   ar
    22    23    19   ar
    23     6     1    1
    24    16     9   ar
    25     7     1    1
    26     3     8    1
@<TRIPOS>MOLECULE
*****
 23 26 0 0 0
SMALL
GASTEIGER

@<TRIPOS>ATOM
      1 C          63.0924   83.2134   12.2545 C.3     1  UNL1        0.0409
      2 C          63.3091   83.4860   13.7135 C.3     1  UNL1        0.0707
      3 N          63.3525   82.3488   14.6906 N.3     1  UNL1       -0.2974
      4 C          63.1792   80.9389   14.2087 C.3     1  UNL1        0.0689
      5 C          62.9625   80.6663   12.7497 C.3     1  UNL1        0.0212
      6 C          62.9191   81.8035   11.7726 C.3     1  UNL1        0.0234
      7 C          62.8757   82.9408   10.7954 C.3     1  UNL1        0.0078
      8 H          62.6145   82.5193   15.3737 H       1  UNL1        0.1232
      9 C          63.1443   82.7749   12.8932 C.ar    1  UNL1       -0.0218
     10 C          61.9988   83.1882   13.7690 C.ar    1  UNL1       -0.0034
     11 C          62.2239   84.1596   14.8896 C.ar    1  UNL1        0.0119
     12 C          63.5945   84.7176   15.1344 C.ar    1  UNL1        0.0682
     13 CL         63.8196   85.6890   16.2551 Cl      1  UNL1       -0.0814
     14 C          64.7400   84.3044   14.2586 C.ar    1  UNL1        0.0679
     15 CL         66.1106   84.8625   14.5034 Cl      1  UNL1       -0.0814
     16 C          64.5149   83.3330   13.1380 C.ar    1  UNL1        0.0080
     17 C          63.1674   84.6840   11.9686 C.3     1  UNL1        0.1290
     18 C          59.6882   87.0699    8.7932 C.3     1  UNL1        0.0540
     19 C          60.9031   86.3421    9.2873 C.ar    1  UNL1        0.0805
     20 C          62.0547   85.8765    8.4464 C.ar    1  UNL1        0.0367
     21 C          63.0431   85.1986    9.3485 C.ar    1  UNL1        0.0963
     22 N          62.5023   85.2454   10.7469 N.ar    1  UNL1       -0.2497
     23 N          61.1798   85.9520   10.7090 N.ar    1  UNL1       -0.1736
@<TRIPOS>BOND
     1    18    19    1
     2    19    20   ar
     3    20    21   ar
     4    21    22   ar
     5    22    17    1
     6    17     1    1
     7     1     2    1
     8     2     3    1
     9     3     4    1
    10     4     5    1
    11     5     6    1
    12     6     9    1
    13     9    10   ar
    14    10    11   ar
    15    11    12   ar
    16    12    13    1
    17    12    14   ar
    18    14    15    1
    19    14    16   ar
    20     6     7    1
    21    22    23   ar
    22    23    19   ar
    23     6     1    1
    24    16     9   ar
    25     7     1    1
    26     3     8    1
@<TRIPOS>MOLECULE
*****
 23 26 0 0 0
SMALL
GASTEIGER

@<TRIPOS>ATOM
      1 C          62.8797   84.4176   11.4714 C.3     1  UNL1        0.0409
      2 C          63.1114   84.0009   12.8935 C.3     1  UNL1        0.0707
      3 N          64.0773   82.8959   13.2034 N.3     1  UNL1       -0.2974
      4 C          64.8115   82.2077   12.0912 C.3     1  UNL1        0.0689
      5 C          64.5799   82.6243   10.6690 C.3     1  UNL1        0.0212
      6 C          63.6140   83.7293   10.3591 C.3     1  UNL1        0.0234
      7 C          62.6480   84.8343   10.0491 C.3     1  UNL1        0.0078
      8 H          63.5518   82.1759   13.6992 H       1  UNL1        0.1232
      9 C          63.3238   83.8861   11.8223 C.ar    1  UNL1       -0.0218
     10 C          62.3214   82.9906   12.4884 C.ar    1  UNL1       -0.0034
     11 C          62.0313   83.1474   13.9516 C.ar    1  UNL1        0.0119
     12 C          62.7435   84.1996   14.7490 C.ar    1  UNL1        0.0682
     13 CL         62.4533   84.3563   16.2123 Cl      1  UNL1       -0.0814
     14 C          63.7459   85.0950   14.0830 C.ar    1  UNL1        0.0679
     15 CL         64.4581   86.1471   14.8803 Cl      1  UNL1       -0.0814
     16 C          64.0361   84.9382   12.6197 C.ar    1  UNL1        0.0080
     17 C          61.8982   85.4529   11.9346 C.3     1  UNL1        0.1290
     18 C          62.6872   90.4386   10.3851 C.3     1  UNL1        0.0540
     19 C          62.1397   89.0458   10.4860 C.ar    1  UNL1        0.0805
     20 C          61.0413   88.4671    9.6442 C.ar    1  UNL1        0.0367
     21 C          60.8171   87.0507   10.0843 C.ar    1  UNL1        0.0963
     22 N          61.7770   86.7541   11.1982 N.ar    1  UNL1       -0.2497
     23 N          62.5943   87.9871   11.4465 N.ar    1  UNL1       -0.1736
@<TRIPOS>BOND
     1    18    19    1
     2    19    20   ar
     3    20    21   ar
     4    21    22   ar
     5    22    17    1
     6    17     1    1
     7     1     2    1
     8     2     3    1
     9     3     4    1
    10     4     5    1
    11     5     6    1
    12     6     9    1
    13     9    10   ar
    14    10    11   ar
    15    11    12   ar
    16    12    13    1
    17    12    14   ar
    18    14    15    1
    19    14    16   ar
    20     6     7    1
    21    22    23   ar
    22    23    19   ar
    23     6     1    1
    24    16     9   ar
    25     7     1    1
    26     3     8    1
@<TRIPOS>MOLECULE
*****
 23 26 0 0 0
SMALL
GASTEIGER

@<TRIPOS>ATOM
      1 C          63.8583   83.1529   13.4992 C.3     1  UNL1        0.0409
      2 C          63.5120   83.2212   12.0413 C.3     1  UNL1        0.0707
      3 N          62.8545   82.0514   11.3710 N.3     1  UNL1       -0.2974
      4 C          62.5434   80.8133   12.1586 C.3     1  UNL1        0.0689
      5 C          62.8897   80.7450   13.6165 C.3     1  UNL1        0.0212
      6 C          63.5471   81.9148   14.2867 C.3     1  UNL1        0.0234
      7 C          64.2046   83.0847   14.9571 C.3     1  UNL1        0.0078
      8 H          63.4671   81.7678   10.6064 H       1  UNL1        0.1232
      9 C          63.5268   82.6690   12.9903 C.ar    1  UNL1       -0.0218
     10 C          64.5518   82.3749   11.9354 C.ar    1  UNL1       -0.0034
     11 C          64.5315   83.1291   10.6390 C.ar    1  UNL1        0.0119
     12 C          63.4862   84.1775   10.3975 C.ar    1  UNL1        0.0682
     13 CL         63.4660   84.9317    9.1010 Cl      1  UNL1       -0.0814
     14 C          62.4613   84.4717   11.4524 C.ar    1  UNL1        0.0679
     15 CL         61.4160   85.5201   11.2109 Cl      1  UNL1       -0.0814
     16 C          62.4815   83.7174   12.7488 C.ar    1  UNL1        0.0080
     17 C          64.4175   84.5431   13.4315 C.3     1  UNL1        0.1290
     18 C          62.6693   86.6781   17.9333 C.3     1  UNL1        0.0540
     19 C          63.2842   86.5186   16.5745 C.ar    1  UNL1        0.0805
     20 C          63.8763   87.6158   15.7405 C.ar    1  UNL1        0.0367
     21 C          64.3730   87.0094   14.4615 C.ar    1  UNL1        0.0963
     22 N          64.0877   85.5373   14.5052 N.ar    1  UNL1       -0.2497
     23 N          63.4148   85.2341   15.8110 N.ar    1  UNL1       -0.1736
@<TRIPOS>BOND
     1    18    19    1
     2    19    20   ar
     3    20    21   ar
     4    21    22   ar
     5    22    17    1
     6    17     1    1
     7     1     2    1
     8     2     3    1
     9     3     4    1
    10     4     5    1
    11     5     6    1
    12     6     9    1
    13     9    10   ar
    14    10    11   ar
    15    11    12   ar
    16    12    13    1
    17    12    14   ar
    18    14    15    1
    19    14    16   ar
    20     6     7    1
    21    22    23   ar
    22    23    19   ar
    23     6     1    1
    24    16     9   ar
    25     7     1    1
    26     3     8    1
@<TRIPOS>MOLECULE
*****
 23 26 0 0 0
SMALL
GASTEIGER

@<TRIPOS>ATOM
      1 C          62.9062   84.3351   11.3330 C.3     1  UNL1        0.0409
      2 C          63.1473   83.7945   12.7112 C.3     1  UNL1        0.0707
      3 N          64.1374   82.6872   12.9200 N.3     1  UNL1       -0.2974
      4 C          64.8865   82.1206   11.7504 C.3     1  UNL1        0.0689
      5 C          64.6454   82.6612   10.3722 C.3     1  UNL1        0.0212
      6 C          63.6553   83.7684   10.1635 C.3     1  UNL1        0.0234
      7 C          62.6651   84.8757    9.9547 C.3     1  UNL1        0.0078
      8 H          63.6280   81.9132   13.3464 H       1  UNL1        0.1232
      9 C          63.3620   83.7834   11.6344 C.ar    1  UNL1       -0.0218
     10 C          63.9687   84.8400   12.5095 C.ar    1  UNL1       -0.0034
     11 C          63.6754   84.8550   13.9804 C.ar    1  UNL1        0.0119
     12 C          62.7754   83.8135   14.5764 C.ar    1  UNL1        0.0682
     13 CL         62.4821   83.8285   16.0474 Cl      1  UNL1       -0.0814
     14 C          62.1687   82.7569   13.7014 C.ar    1  UNL1        0.0679
     15 CL         61.2687   81.7154   14.2974 Cl      1  UNL1       -0.0814
     16 C          62.4620   82.7419   12.2304 C.ar    1  UNL1        0.0080
     17 C          61.9021   85.3015   11.8877 C.3     1  UNL1        0.1290
     18 C          62.6483   90.3781   10.6421 C.3     1  UNL1        0.0540
     19 C          62.0836   88.9894   10.6911 C.ar    1  UNL1        0.0805
     20 C          60.9004   88.4909    9.9155 C.ar    1  UNL1        0.0367
     21 C          60.6884   87.0487   10.2693 C.ar    1  UNL1        0.0963
     22 N          61.7406   86.6559   11.2636 N.ar    1  UNL1       -0.2497
     23 N          62.6028   87.8553   11.5243 N.ar    1  UNL1       -0.1736
@<TRIPOS>BOND
     1    18    19    1
     2    19    20   ar
     3    20    21   ar
     4    21    22   ar
     5    22    17    1
     6    17     1    1
     7     1     2    1
     8     2     3    1
     9     3     4    1
    10     4     5    1
    11     5     6    1
    12     6     9    1
    13     9    10   ar
    14    10    11   ar
    15    11    12   ar
    16    12    13    1
    17    12    14   ar
    18    14    15    1
    19    14    16   ar
    20     6     7    1
    21    22    23   ar
    22    23    19   ar
    23     6     1    1
    24    16     9   ar
    25     7     1    1
    26     3     8    1
@<TRIPOS>MOLECULE
*****
 23 26 0 0 0
SMALL
GASTEIGER

@<TRIPOS>ATOM
      1 C          62.0583   87.4777   11.1995 C.3     1  UNL1        0.0409
      2 C          61.1547   87.6867   10.0206 C.3     1  UNL1        0.0707
      3 N          61.1407   89.0083    9.3113 N.3     1  UNL1       -0.2974
      4 C          62.0304   90.1209    9.7809 C.3     1  UNL1        0.0689
      5 C          62.9340   89.9120   10.9598 C.3     1  UNL1        0.0212
      6 C          62.9479   88.5904   11.6691 C.3     1  UNL1        0.0234
      7 C          62.9619   87.2687   12.3784 C.3     1  UNL1        0.0078
      8 H          60.1834   89.3573    9.3576 H       1  UNL1        0.1232
      9 C          61.9126   88.0687   10.7173 C.ar    1  UNL1       -0.0218
     10 C          60.4709   88.4409   10.8995 C.ar    1  UNL1       -0.0034
     11 C          59.4356   87.9192    9.9477 C.ar    1  UNL1        0.0119
     12 C          59.8419   87.0253    8.8137 C.ar    1  UNL1        0.0682
     13 CL         58.8065   86.5036    7.8619 Cl      1  UNL1       -0.0814
     14 C          61.2835   86.6531    8.6315 C.ar    1  UNL1        0.0679
     15 CL         61.6897   85.7591    7.4976 Cl      1  UNL1       -0.0814
     16 C          62.3189   87.1748    9.5833 C.ar    1  UNL1        0.0080
     17 C          61.5527   86.0723   11.3378 C.3     1  UNL1        0.1290
     18 C          63.8836   83.1128   15.0377 C.3     1  UNL1        0.0540
     19 C          63.4729   83.6720   13.7079 C.ar    1  UNL1        0.0805
     20 C          63.9426   83.1921   12.3666 C.ar    1  UNL1        0.0367
     21 C          63.2804   84.0328   11.3154 C.ar    1  UNL1        0.0963
     22 N          62.4015   85.0324   12.0072 N.ar    1  UNL1       -0.2497
     23 N          62.5205   84.8094   13.4857 N.ar    1  UNL1       -0.1736
@<TRIPOS>BOND
     1    18    19    1
     2    19    20   ar
     3    20    21   ar
     4    21    22   ar
     5    22    17    1
     6    17     1    1
     7     1     2    1
     8     2     3    1
     9     3     4    1
    10     4     5    1
    11     5     6    1
    12     6     9    1
    13     9    10   ar
    14    10    11   ar
    15    11    12   ar
    16    12    13    1
    17    12    14   ar
    18    14    15    1
    19    14    16   ar
    20     6     7    1
    21    22    23   ar
    22    23    19   ar
    23     6     1    1
    24    16     9   ar
    25     7     1    1
    26     3     8    1
@<TRIPOS>MOLECULE
*****
 23 26 0 0 0
SMALL
GASTEIGER

@<TRIPOS>ATOM
      1 C          61.0252   86.9728    9.6791 C.3     1  UNL1        0.0409
      2 C          61.1392   88.3971   10.1357 C.3     1  UNL1        0.0707
      3 N          60.5123   89.4956    9.3293 N.3     1  UNL1       -0.2974
      4 C          59.7714   89.1698    8.0664 C.3     1  UNL1        0.0689
      5 C          59.6574   87.7456    7.6098 C.3     1  UNL1        0.0212
      6 C          60.2843   86.6471    8.4162 C.3     1  UNL1        0.0234
      7 C          60.9112   85.5485    9.2226 C.3     1  UNL1        0.0078
      8 H          61.2622   90.1378    9.0734 H       1  UNL1        0.1232
      9 C          60.7778   87.6574    9.4089 C.ar    1  UNL1       -0.0218
     10 C          62.1681   88.2081    9.2905 C.ar    1  UNL1       -0.0034
     11 C          62.6617   89.2185   10.2833 C.ar    1  UNL1        0.0119
     12 C          61.7650   89.6782   11.3944 C.ar    1  UNL1        0.0682
     13 CL         62.2586   90.6887   12.3871 Cl      1  UNL1       -0.0814
     14 C          60.3748   89.1276   11.5128 C.ar    1  UNL1        0.0679
     15 CL         59.4781   89.5873   12.6239 Cl      1  UNL1       -0.0814
     16 C          59.8812   88.1172   10.5200 C.ar    1  UNL1        0.0080
     17 C          61.8149   86.5266   10.8738 C.3     1  UNL1        0.1290
     18 C          63.4794   81.7216   12.2956 C.3     1  UNL1        0.0540
     19 C          63.2690   82.9856   11.5160 C.ar    1  UNL1        0.0805
     20 C          63.8593   83.3023   10.1739 C.ar    1  UNL1        0.0367
     21 C          63.3865   84.6674    9.7699 C.ar    1  UNL1        0.0963
     22 N          62.5039   85.1943   10.8624 N.ar    1  UNL1       -0.2497
     23 N          62.4313   84.1549   11.9415 N.ar    1  UNL1       -0.1736
@<TRIPOS>BOND
     1    18    19    1
     2    19    20   ar
     3    20    21   ar
     4    21    22   ar
     5    22    17    1
     6    17     1    1
     7     1     2    1
     8     2     3    1
     9     3     4    1
    10     4     5    1
    11     5     6    1
    12     6     9    1
    13     9    10   ar
    14    10    11   ar
    15    11    12   ar
    16    12    13    1
    17    12    14   ar
    18    14    15    1
    19    14    16   ar
    20     6     7    1
    21    22    23   ar
    22    23    19   ar
    23     6     1    1
    24    16     9   ar
    25     7     1    1
    26     3     8    1
@<TRIPOS>MOLECULE
*****
 23 26 0 0 0
SMALL
GASTEIGER

@<TRIPOS>ATOM
      1 C          62.0717   86.6245   10.2612 C.3     1  UNL1        0.0409
      2 C          61.2241   87.8617   10.2331 C.3     1  UNL1        0.0707
      3 N          60.3169   88.1230    9.0675 N.3     1  UNL1       -0.2974
      4 C          60.2573   87.1471    7.9300 C.3     1  UNL1        0.0689
      5 C          61.1049   85.9098    7.9580 C.3     1  UNL1        0.0212
      6 C          62.0120   85.6485    9.1237 C.3     1  UNL1        0.0234
      7 C          62.9193   85.3872   10.2893 C.3     1  UNL1        0.0078
      8 H          60.5974   89.0201    8.6714 H       1  UNL1        0.1232
      9 C          61.5571   86.9263    9.7642 C.ar    1  UNL1       -0.0218
     10 C          60.2987   86.9496   10.5802 C.ar    1  UNL1       -0.0034
     11 C          59.8437   88.2274   11.2207 C.ar    1  UNL1        0.0119
     12 C          60.6472   89.4819   11.0453 C.ar    1  UNL1        0.0682
     13 CL         60.1922   90.7597   11.6859 Cl      1  UNL1       -0.0814
     14 C          61.9056   89.4586   10.2293 C.ar    1  UNL1        0.0679
     15 CL         62.7090   90.7130   10.0538 Cl      1  UNL1       -0.0814
     16 C          62.3606   88.1808    9.5887 C.ar    1  UNL1        0.0080
     17 C          62.6299   87.0370   11.5909 C.3     1  UNL1        0.1290
     18 C          62.3151   82.6793   14.5561 C.3     1  UNL1        0.0540
     19 C          62.7642   83.9996   14.0037 C.ar    1  UNL1        0.0805
     20 C          63.9123   84.8221   14.5090 C.ar    1  UNL1        0.0367
     21 C          64.0018   86.0600   13.6666 C.ar    1  UNL1        0.0963
     22 N          62.9089   86.0026   12.6408 N.ar    1  UNL1       -0.2497
     23 N          62.1440   84.7292   12.8491 N.ar    1  UNL1       -0.1736
@<TRIPOS>BOND
     1    18    19    1
     2    19    20   ar
     3    20    21   ar
     4    21    22   ar
     5    22    17    1
     6    17     1    1
     7     1     2    1
     8     2     3    1
     9     3     4    1
    10     4     5    1
    11     5     6    1
    12     6     9    1
    13     9    10   ar
    14    10    11   ar
    15    11    12   ar
    16    12    13    1
    17    12    14   ar
    18    14    15    1
    19    14    16   ar
    20     6     7    1
    21    22    23   ar
    22    23    19   ar
    23     6     1    1
    24    16     9   ar
    25     7     1    1
    26     3     8    1
@<TRIPOS>MOLECULE
*****
 23 26 0 0 0
SMALL
GASTEIGER

@<TRIPOS>ATOM
      1 C          62.9419   93.8090    0.4773 C.3     1  UNL1        0.0409
      2 C          61.4662   93.6839    0.7149 C.3     1  UNL1        0.0707
      3 N          60.9585   92.8652    1.8646 N.3     1  UNL1       -0.2974
      4 C          61.9265   92.1718    2.7768 C.3     1  UNL1        0.0689
      5 C          63.4022   92.2970    2.5393 C.3     1  UNL1        0.0212
      6 C          63.9100   93.1156    1.3895 C.3     1  UNL1        0.0234
      7 C          64.4178   93.9342    0.2396 C.3     1  UNL1        0.0078
      8 H          60.3575   92.1424    1.4688 H       1  UNL1        0.1232
      9 C          62.4991   93.4437    1.0000 C.ar    1  UNL1       -0.0218
     10 C          61.7159   92.4910    0.1461 C.ar    1  UNL1       -0.0034
     11 C          60.3050   92.8190   -0.2433 C.ar    1  UNL1        0.0119
     12 C          59.6772   94.0997    0.2211 C.ar    1  UNL1        0.0682
     13 CL         58.2662   94.4278   -0.1684 Cl      1  UNL1       -0.0814
     14 C          60.4603   95.0524    1.0749 C.ar    1  UNL1        0.0679
     15 CL         59.8326   96.3331    1.5393 Cl      1  UNL1       -0.0814
     16 C          61.8713   94.7244    1.4644 C.ar    1  UNL1        0.0080
     17 C          62.6762   94.6820   -0.7132 C.3     1  UNL1        0.1290
     18 C          64.4941   92.2840   -5.0520 C.3     1  UNL1        0.0540
     19 C          64.2244   93.3203   -4.0018 C.ar    1  UNL1        0.0805
     20 C          64.7462   94.7266   -3.9964 C.ar    1  UNL1        0.0367
     21 C          64.2298   95.4079   -2.7638 C.ar    1  UNL1        0.0963
     22 N          63.3888   94.4226   -2.0074 N.ar    1  UNL1       -0.2497
     23 N          63.3855   93.1325   -2.7726 N.ar    1  UNL1       -0.1736
@<TRIPOS>BOND
     1    18    19    1
     2    19    20   ar
     3    20    21   ar
     4    21    22   ar
     5    22    17    1
     6    17     1    1
     7     1     2    1
     8     2     3    1
     9     3     4    1
    10     4     5    1
    11     5     6    1
    12     6     9    1
    13     9    10   ar
    14    10    11   ar
    15    11    12   ar
    16    12    13    1
    17    12    14   ar
    18    14    15    1
    19    14    16   ar
    20     6     7    1
    21    22    23   ar
    22    23    19   ar
    23     6     1    1
    24    16     9   ar
    25     7     1    1
    26     3     8    1
