@<TRIPOS>MOLECULE
*****
 23 26 0 0 0
SMALL
GASTEIGER

@<TRIPOS>ATOM
      1 C          62.4827   89.5017   11.7280 C.2     1  UNL1        0.3428
      2 O          61.1898   89.6744   12.4685 O.2     1  UNL1       -0.2448
      3 C          67.4780   93.2465   15.1419 C.3     1  UNL1        0.0267
      4 C          66.4462   92.5461   14.3085 C.2     1  UNL1       -0.0383
      5 C          65.6980   91.3736   14.8703 C.2     1  UNL1       -0.0123
      6 C          64.6662   90.6732   14.0367 C.2     1  UNL1       -0.0211
      7 C          63.9180   89.5008   14.5985 C.3     1  UNL1        0.0310
      8 C          64.3825   91.1452   12.6415 C.2     1  UNL1        0.0177
      9 C          63.4290   90.6575   11.5913 C.2     1  UNL1        0.0955
     10 C          63.5879   91.5285   10.3804 C.2     1  UNL1        0.1049
     11 N          64.6396   92.5545   10.6823 N.2     1  UNL1       -0.2476
     12 C          65.1307   92.3177   12.0797 C.2     1  UNL1        0.0630
     13 C          66.1625   93.0181   12.9132 C.3     1  UNL1        0.0677
     14 O          62.8294   88.1731   11.1241 O.3     1  UNL1       -0.4454
     15 C          61.8020   87.0813   11.0731 C.3     1  UNL1        0.2087
     16 C          61.1539   86.7217    9.7690 C.3     1  UNL1        0.0445
     17 C          59.7795   87.2305    9.4491 C.3     1  UNL1        0.0210
     18 C          59.1314   86.8708    8.1450 C.3     1  UNL1        0.0722
     19 N          59.8577   86.0025    7.1609 N.3     1  UNL1       -0.2727
     20 C          61.2320   85.4938    7.4808 C.3     1  UNL1        0.0722
     21 C          61.8801   85.8534    8.7849 C.3     1  UNL1        0.0210
     22 C          60.2535   86.1728    7.8625 C.3     1  UNL1        0.0722
     23 C          60.8396   86.4979    9.0416 C.3     1  UNL1        0.0210
@<TRIPOS>BOND
     1     3     4    1
     2     4     5    2
     3     5     6    1
     4     6     7    1
     5     6     8    2
     6     8     9    1
     7     9     1    1
     8     1     2    2
     9     1    14    1
    10    14    15    1
    11    15    16    1
    12    16    17    1
    13    17    18    1
    14    18    19    1
    15    19    20    1
    16    20    21    1
    17    19    22    1
    18    22    23    1
    19     9    10    2
    20    10    11    1
    21    11    12    2
    22    12    13    1
    23    13     4    1
    24    12     8    1
    25    21    16    1
    26    23    16    1
@<TRIPOS>MOLECULE
*****
 23 26 0 0 0
SMALL
GASTEIGER

@<TRIPOS>ATOM
      1 C          62.2849   89.2654   11.9878 C.2     1  UNL1        0.3428
      2 O          60.8340   89.5340   12.2574 O.2     1  UNL1       -0.2448
      3 C          67.3801   93.3009   14.8835 C.3     1  UNL1        0.0267
      4 C          66.3229   92.5289   14.1513 C.2     1  UNL1       -0.0383
      5 C          65.5995   91.4096   14.8395 C.2     1  UNL1       -0.0123
      6 C          64.5422   90.6375   14.1072 C.2     1  UNL1       -0.0211
      7 C          63.8187   89.5182   14.7955 C.3     1  UNL1        0.0310
      8 C          64.2084   90.9848   12.6867 C.2     1  UNL1        0.0177
      9 C          63.2211   90.4057   11.7172 C.2     1  UNL1        0.0955
     10 C          63.3343   91.1671   10.4298 C.2     1  UNL1        0.1049
     11 N          64.3917   92.2167   10.6036 N.2     1  UNL1       -0.2476
     12 C          64.9319   92.1041   11.9984 C.2     1  UNL1        0.0630
     13 C          65.9891   92.8761   12.7306 C.3     1  UNL1        0.0677
     14 O          62.7996   87.8564   11.9887 O.3     1  UNL1       -0.4454
     15 C          62.0991   86.8014   11.1847 C.3     1  UNL1        0.2087
     16 C          62.6185   85.3943   11.1795 C.3     1  UNL1        0.0445
     17 C          63.1642   84.8009    9.9145 C.3     1  UNL1        0.0210
     18 C          63.6836   83.3937    9.9093 C.3     1  UNL1        0.0722
     19 N          63.6573   82.5799   11.1691 N.3     1  UNL1       -0.2727
     20 C          63.1116   83.1733   12.4341 C.3     1  UNL1        0.0722
     21 C          62.5922   84.5805   12.4392 C.3     1  UNL1        0.0210
     22 C          63.3616   83.3466   11.2209 C.3     1  UNL1        0.0722
     23 C          62.8920   84.6190   11.2257 C.3     1  UNL1        0.0210
@<TRIPOS>BOND
     1     3     4    1
     2     4     5    2
     3     5     6    1
     4     6     7    1
     5     6     8    2
     6     8     9    1
     7     9     1    1
     8     1     2    2
     9     1    14    1
    10    14    15    1
    11    15    16    1
    12    16    17    1
    13    17    18    1
    14    18    19    1
    15    19    20    1
    16    20    21    1
    17    19    22    1
    18    22    23    1
    19     9    10    2
    20    10    11    1
    21    11    12    2
    22    12    13    1
    23    13     4    1
    24    12     8    1
    25    21    16    1
    26    23    16    1
@<TRIPOS>MOLECULE
*****
 23 26 0 0 0
SMALL
GASTEIGER

@<TRIPOS>ATOM
      1 C          62.6384   88.8846   12.4197 C.2     1  UNL1        0.3428
      2 O          61.2124   89.3221   12.2617 O.2     1  UNL1       -0.2448
      3 C          66.5335   94.7128   11.1983 C.3     1  UNL1        0.0267
      4 C          65.7729   93.4803   11.5886 C.2     1  UNL1       -0.0383
      5 C          64.8218   92.8468   10.6170 C.2     1  UNL1       -0.0123
      6 C          64.0612   91.6143   11.0073 C.2     1  UNL1       -0.0211
      7 C          63.1101   90.9807   10.0357 C.3     1  UNL1        0.0310
      8 C          64.2517   91.0153   12.3692 C.2     1  UNL1        0.0177
      9 C          63.6447   89.8138   13.0312 C.2     1  UNL1        0.0955
     10 C          64.2206   89.7048   14.4119 C.2     1  UNL1        0.1049
     11 N          65.1835   90.8389   14.6033 N.2     1  UNL1       -0.2476
     12 C          65.2027   91.6488   13.3409 C.2     1  UNL1        0.0630
     13 C          65.9634   92.8813   12.9506 C.3     1  UNL1        0.0677
     14 O          63.0582   87.5178   11.9662 O.3     1  UNL1       -0.4454
     15 C          62.0220   86.5061   11.5751 C.3     1  UNL1        0.2087
     16 C          61.7689   86.2137   10.1258 C.3     1  UNL1        0.0445
     17 C          60.5055   86.6919    9.4737 C.3     1  UNL1        0.0210
     18 C          60.2524   86.3994    8.0245 C.3     1  UNL1        0.0722
     19 N          61.2627   85.6287    7.2273 N.3     1  UNL1       -0.2727
     20 C          62.5260   85.1504    7.8794 C.3     1  UNL1        0.0722
     21 C          62.7791   85.4429    9.3287 C.3     1  UNL1        0.0210
     22 C          61.4454   85.7647    8.0185 C.3     1  UNL1        0.0722
     23 C          61.6744   86.0291    9.3289 C.3     1  UNL1        0.0210
@<TRIPOS>BOND
     1     3     4    1
     2     4     5    2
     3     5     6    1
     4     6     7    1
     5     6     8    2
     6     8     9    1
     7     9     1    1
     8     1     2    2
     9     1    14    1
    10    14    15    1
    11    15    16    1
    12    16    17    1
    13    17    18    1
    14    18    19    1
    15    19    20    1
    16    20    21    1
    17    19    22    1
    18    22    23    1
    19     9    10    2
    20    10    11    1
    21    11    12    2
    22    12    13    1
    23    13     4    1
    24    12     8    1
    25    21    16    1
    26    23    16    1
@<TRIPOS>MOLECULE
*****
 23 26 0 0 0
SMALL
GASTEIGER

@<TRIPOS>ATOM
      1 C          63.9763   90.6319   13.3441 C.2     1  UNL1        0.3428
      2 O          63.4691   91.3203   14.5764 O.2     1  UNL1       -0.2448
      3 C          60.9021   86.0259    8.8757 C.3     1  UNL1        0.0267
      4 C          61.5844   86.8821    9.9011 C.2     1  UNL1       -0.0383
      5 C          61.6490   88.3689    9.7138 C.2     1  UNL1       -0.0123
      6 C          62.3313   89.2251   10.7392 C.2     1  UNL1       -0.0211
      7 C          62.3959   90.7119   10.5519 C.3     1  UNL1        0.0310
      8 C          62.9491   88.5943   11.9518 C.2     1  UNL1        0.0177
      9 C          63.6829   89.1776   13.1229 C.2     1  UNL1        0.0955
     10 C          64.0719   88.0512   14.0339 C.2     1  UNL1        0.1049
     11 N          63.5785   86.7718   13.4259 N.2     1  UNL1       -0.2476
     12 C          62.8845   87.1075   12.1391 C.2     1  UNL1        0.0630
     13 C          62.2022   86.2513   11.1138 C.3     1  UNL1        0.0677
     14 O          64.7768   91.3977   12.3328 O.3     1  UNL1       -0.4454
     15 C          65.5155   92.6370   12.7435 C.3     1  UNL1        0.2087
     16 C          66.5996   92.5562   13.7770 C.3     1  UNL1        0.0445
     17 C          67.9372   91.9803   13.4174 C.3     1  UNL1        0.0210
     18 C          69.0213   91.8995   14.4509 C.3     1  UNL1        0.0722
     19 N          68.7678   92.3945   15.8440 N.3     1  UNL1       -0.2727
     20 C          67.4302   92.9704   16.2036 C.3     1  UNL1        0.0722
     21 C          66.3461   93.0512   15.1701 C.3     1  UNL1        0.0210
     22 C          68.1430   92.4596   15.3118 C.3     1  UNL1        0.0722
     23 C          67.1627   92.5327   14.3773 C.3     1  UNL1        0.0210
@<TRIPOS>BOND
     1     3     4    1
     2     4     5    2
     3     5     6    1
     4     6     7    1
     5     6     8    2
     6     8     9    1
     7     9     1    1
     8     1     2    2
     9     1    14    1
    10    14    15    1
    11    15    16    1
    12    16    17    1
    13    17    18    1
    14    18    19    1
    15    19    20    1
    16    20    21    1
    17    19    22    1
    18    22    23    1
    19     9    10    2
    20    10    11    1
    21    11    12    2
    22    12    13    1
    23    13     4    1
    24    12     8    1
    25    21    16    1
    26    23    16    1
@<TRIPOS>MOLECULE
*****
 23 26 0 0 0
SMALL
GASTEIGER

@<TRIPOS>ATOM
      1 C          62.2662   86.4802   12.0502 C.2     1  UNL1        0.3428
      2 O          63.3261   87.4851   12.3923 O.2     1  UNL1       -0.2448
      3 C          61.8125   84.3214    5.2852 C.3     1  UNL1        0.0267
      4 C          61.7902   84.8586    6.6855 C.2     1  UNL1       -0.0383
      5 C          62.8287   84.4184    7.6743 C.2     1  UNL1       -0.0123
      6 C          62.8064   84.9556    9.0747 C.2     1  UNL1       -0.0211
      7 C          63.8449   84.5154   10.0635 C.3     1  UNL1        0.0310
      8 C          61.7456   85.9330    9.4862 C.2     1  UNL1        0.0177
      9 C          61.4717   86.6287   10.7866 C.2     1  UNL1        0.0955
     10 C          60.2640   87.4988   10.6015 C.2     1  UNL1        0.1049
     11 N          59.7914   87.3409    9.1867 N.2     1  UNL1       -0.2476
     12 C          60.7071   86.3732    8.4974 C.2     1  UNL1        0.0630
     13 C          60.7294   85.8360    7.0971 C.3     1  UNL1        0.0677
     14 O          62.0008   85.3269   12.9719 O.3     1  UNL1       -0.4454
     15 C          63.0755   84.3140   13.2346 C.3     1  UNL1        0.2087
     16 C          62.7468   82.8506   13.2196 C.3     1  UNL1        0.0445
     17 C          61.9472   82.2499   14.3376 C.3     1  UNL1        0.0210
     18 C          61.6185   80.7865   14.3225 C.3     1  UNL1        0.0722
     19 N          62.0893   79.9237   13.1894 N.3     1  UNL1       -0.2727
     20 C          62.8888   80.5244   12.0714 C.3     1  UNL1        0.0722
     21 C          63.2175   81.9878   12.0865 C.3     1  UNL1        0.0210
     22 C          62.2940   80.7204   13.1540 C.3     1  UNL1        0.0722
     23 C          62.5913   82.0436   13.1676 C.3     1  UNL1        0.0210
@<TRIPOS>BOND
     1     3     4    1
     2     4     5    2
     3     5     6    1
     4     6     7    1
     5     6     8    2
     6     8     9    1
     7     9     1    1
     8     1     2    2
     9     1    14    1
    10    14    15    1
    11    15    16    1
    12    16    17    1
    13    17    18    1
    14    18    19    1
    15    19    20    1
    16    20    21    1
    17    19    22    1
    18    22    23    1
    19     9    10    2
    20    10    11    1
    21    11    12    2
    22    12    13    1
    23    13     4    1
    24    12     8    1
    25    21    16    1
    26    23    16    1
@<TRIPOS>MOLECULE
*****
 23 26 0 0 0
SMALL
GASTEIGER

@<TRIPOS>ATOM
      1 C          64.2894   90.7099   14.0942 C.2     1  UNL1        0.3428
      2 O          63.4864   91.2550   15.2379 O.2     1  UNL1       -0.2448
      3 C          62.2804   84.5145   11.2284 C.3     1  UNL1        0.0267
      4 C          62.6439   85.8855   11.7164 C.2     1  UNL1       -0.0383
      5 C          63.3755   86.0497   13.0156 C.2     1  UNL1       -0.0123
      6 C          63.7390   87.4208   13.5035 C.2     1  UNL1       -0.0211
      7 C          64.4705   87.5850   14.8027 C.3     1  UNL1        0.0310
      8 C          63.3709   88.6276   12.6923 C.2     1  UNL1        0.0177
      9 C          63.5945   90.0938   12.9163 C.2     1  UNL1        0.0955
     10 C          63.0011   90.8359   11.7556 C.2     1  UNL1        0.1049
     11 N          62.4108   89.8282   10.8142 N.2     1  UNL1       -0.2476
     12 C          62.6394   88.4634   11.3932 C.2     1  UNL1        0.0630
     13 C          62.2759   87.0924   10.9052 C.3     1  UNL1        0.0677
     14 O          65.7873   90.7809   14.1285 O.3     1  UNL1       -0.4454
     15 C          66.4839   92.0756   13.8310 C.3     1  UNL1        0.2087
     16 C          66.6754   92.5149   12.4096 C.3     1  UNL1        0.0445
     17 C          67.7481   91.8884   11.5690 C.3     1  UNL1        0.0210
     18 C          67.9396   92.3277   10.1476 C.3     1  UNL1        0.0722
     19 N          67.0583   93.3936    9.5669 N.3     1  UNL1       -0.2727
     20 C          65.9856   94.0202   10.4075 C.3     1  UNL1        0.0722
     21 C          65.7941   93.5808   11.8289 C.3     1  UNL1        0.0210
     22 C          66.9155   93.1858   10.3506 C.3     1  UNL1        0.0722
     23 C          66.7423   92.7886   11.6359 C.3     1  UNL1        0.0210
@<TRIPOS>BOND
     1     3     4    1
     2     4     5    2
     3     5     6    1
     4     6     7    1
     5     6     8    2
     6     8     9    1
     7     9     1    1
     8     1     2    2
     9     1    14    1
    10    14    15    1
    11    15    16    1
    12    16    17    1
    13    17    18    1
    14    18    19    1
    15    19    20    1
    16    20    21    1
    17    19    22    1
    18    22    23    1
    19     9    10    2
    20    10    11    1
    21    11    12    2
    22    12    13    1
    23    13     4    1
    24    12     8    1
    25    21    16    1
    26    23    16    1
@<TRIPOS>MOLECULE
*****
 23 26 0 0 0
SMALL
GASTEIGER

@<TRIPOS>ATOM
      1 C          64.2467   86.0530   14.5416 C.2     1  UNL1        0.3428
      2 O          65.6298   85.4727   14.5253 O.2     1  UNL1       -0.2448
      3 C          61.1899   89.5709    9.1646 C.3     1  UNL1        0.0267
      4 C          61.8759   88.9593   10.3500 C.2     1  UNL1       -0.0383
      5 C          61.8771   87.4701   10.5300 C.2     1  UNL1       -0.0123
      6 C          62.5632   86.8585   11.7155 C.2     1  UNL1       -0.0211
      7 C          62.5643   85.3693   11.8955 C.3     1  UNL1        0.0310
      8 C          63.2480   87.7360   12.7210 C.2     1  UNL1        0.0177
      9 C          64.0010   87.4218   13.9796 C.2     1  UNL1        0.0955
     10 C          64.4653   88.7168   14.5775 C.2     1  UNL1        0.1049
     11 N          63.9991   89.8313   13.6884 N.2     1  UNL1       -0.2476
     12 C          63.2468   89.2251   12.5410 C.2     1  UNL1        0.0630
     13 C          62.5608   89.8368   11.3556 C.3     1  UNL1        0.0677
     14 O          63.1093   85.2644   15.1200 O.3     1  UNL1       -0.4454
     15 C          63.3008   83.8185   15.4705 C.3     1  UNL1        0.2087
     16 C          63.1083   82.7613   14.4241 C.3     1  UNL1        0.0445
     17 C          64.1286   82.5855   13.3388 C.3     1  UNL1        0.0210
     18 C          63.9360   81.5282   12.2923 C.3     1  UNL1        0.0722
     19 N          62.7230   80.6466   12.3313 N.3     1  UNL1       -0.2727
     20 C          61.7027   80.8224   13.4166 C.3     1  UNL1        0.0722
     21 C          61.8953   81.8797   14.4630 C.3     1  UNL1        0.0210
     22 C          62.7853   81.2122   12.9263 C.3     1  UNL1        0.0722
     23 C          62.9593   82.1682   13.8726 C.3     1  UNL1        0.0210
@<TRIPOS>BOND
     1     3     4    1
     2     4     5    2
     3     5     6    1
     4     6     7    1
     5     6     8    2
     6     8     9    1
     7     9     1    1
     8     1     2    2
     9     1    14    1
    10    14    15    1
    11    15    16    1
    12    16    17    1
    13    17    18    1
    14    18    19    1
    15    19    20    1
    16    20    21    1
    17    19    22    1
    18    22    23    1
    19     9    10    2
    20    10    11    1
    21    11    12    2
    22    12    13    1
    23    13     4    1
    24    12     8    1
    25    21    16    1
    26    23    16    1
@<TRIPOS>MOLECULE
*****
 23 26 0 0 0
SMALL
GASTEIGER

@<TRIPOS>ATOM
      1 C          62.4262   89.0524   11.7285 C.2     1  UNL1        0.3428
      2 O          60.9703   89.3661   11.9075 O.2     1  UNL1       -0.2448
      3 C          63.5224   82.0991   12.7686 C.3     1  UNL1        0.0267
      4 C          63.3716   83.5882   12.6690 C.2     1  UNL1       -0.0383
      5 C          62.5751   84.1881   11.5485 C.2     1  UNL1       -0.0123
      6 C          62.4242   85.6772   11.4490 C.2     1  UNL1       -0.0211
      7 C          61.6277   86.2772   10.3284 C.3     1  UNL1        0.0310
      8 C          63.0699   86.5663   12.4700 C.2     1  UNL1        0.0177
      9 C          63.0955   88.0576   12.6298 C.2     1  UNL1        0.0955
     10 C          63.9077   88.3793   13.8491 C.2     1  UNL1        0.1049
     11 N          64.3842   87.0869   14.4429 N.2     1  UNL1       -0.2476
     12 C          63.8664   85.9664   13.5906 C.2     1  UNL1        0.0630
     13 C          64.0172   84.4774   13.6901 C.3     1  UNL1        0.0677
     14 O          63.2128   89.7337   10.6481 O.3     1  UNL1       -0.4454
     15 C          63.3233   91.2295   10.6303 C.3     1  UNL1        0.2087
     16 C          64.4950   91.9028   11.2811 C.3     1  UNL1        0.0445
     17 C          65.4417   92.7235   10.4563 C.3     1  UNL1        0.0210
     18 C          66.6134   93.3968   11.1072 C.3     1  UNL1        0.0722
     19 N          66.8385   93.2495   12.5829 N.3     1  UNL1       -0.2727
     20 C          65.8918   92.4288   13.4077 C.3     1  UNL1        0.0722
     21 C          64.7201   91.7555   12.7568 C.3     1  UNL1        0.0210
     22 C          66.1825   92.8618   12.2709 C.3     1  UNL1        0.0722
     23 C          65.1230   92.2529   11.6824 C.3     1  UNL1        0.0210
@<TRIPOS>BOND
     1     3     4    1
     2     4     5    2
     3     5     6    1
     4     6     7    1
     5     6     8    2
     6     8     9    1
     7     9     1    1
     8     1     2    2
     9     1    14    1
    10    14    15    1
    11    15    16    1
    12    16    17    1
    13    17    18    1
    14    18    19    1
    15    19    20    1
    16    20    21    1
    17    19    22    1
    18    22    23    1
    19     9    10    2
    20    10    11    1
    21    11    12    2
    22    12    13    1
    23    13     4    1
    24    12     8    1
    25    21    16    1
    26    23    16    1
@<TRIPOS>MOLECULE
*****
 23 26 0 0 0
SMALL
GASTEIGER

@<TRIPOS>ATOM
      1 C          62.2841   89.0667   11.2745 C.2     1  UNL1        0.3428
      2 O          61.6634   89.6765   12.4964 O.2     1  UNL1       -0.2448
      3 C          63.8642   82.5277   13.5932 C.3     1  UNL1        0.0267
      4 C          63.4581   83.8421   12.9953 C.2     1  UNL1       -0.0383
      5 C          63.8877   85.1251   13.6428 C.2     1  UNL1       -0.0123
      6 C          63.4817   86.4396   13.0449 C.2     1  UNL1       -0.0211
      7 C          63.9113   87.7227   13.6923 C.3     1  UNL1        0.0310
      8 C          62.6461   86.4709   11.7996 C.2     1  UNL1        0.0177
      9 C          62.0970   87.6063   10.9876 C.2     1  UNL1        0.0955
     10 C          61.3281   87.0250    9.8383 C.2     1  UNL1        0.1049
     11 N          61.4019   85.5303    9.9401 N.2     1  UNL1       -0.2476
     12 C          62.2165   85.1878   11.1522 C.2     1  UNL1        0.0630
     13 C          62.6225   83.8734   11.7500 C.3     1  UNL1        0.0677
     14 O          63.0918   89.9173   10.3396 O.3     1  UNL1       -0.4454
     15 C          63.2405   91.3868   10.6016 C.3     1  UNL1        0.2087
     16 C          64.4575   91.9028   11.3105 C.3     1  UNL1        0.0445
     17 C          64.6629   91.6003   12.7652 C.3     1  UNL1        0.0210
     18 C          65.8799   92.1163   13.4740 C.3     1  UNL1        0.0722
     19 N          66.8916   92.9349   12.7281 N.3     1  UNL1       -0.2727
     20 C          66.6863   93.2374   11.2734 C.3     1  UNL1        0.0722
     21 C          65.4693   92.7213   10.5645 C.3     1  UNL1        0.0210
     22 C          66.2405   92.6739   12.2971 C.3     1  UNL1        0.0722
     23 C          65.1401   92.2073   11.6561 C.3     1  UNL1        0.0210
@<TRIPOS>BOND
     1     3     4    1
     2     4     5    2
     3     5     6    1
     4     6     7    1
     5     6     8    2
     6     8     9    1
     7     9     1    1
     8     1     2    2
     9     1    14    1
    10    14    15    1
    11    15    16    1
    12    16    17    1
    13    17    18    1
    14    18    19    1
    15    19    20    1
    16    20    21    1
    17    19    22    1
    18    22    23    1
    19     9    10    2
    20    10    11    1
    21    11    12    2
    22    12    13    1
    23    13     4    1
    24    12     8    1
    25    21    16    1
    26    23    16    1
