@<TRIPOS>MOLECULE
*****
 33 37 0 0 0
SMALL
GASTEIGER

@<TRIPOS>ATOM
      1 C          59.5281   92.4308    3.1588 C.ar    1  UNL1        0.1317
      2 C          60.9002   91.9449    3.5210 C.ar    1  UNL1        0.0346
      3 C          61.0987   91.1043    4.7475 C.ar    1  UNL1        0.0121
      4 C          59.9250   90.7497    5.6116 C.ar    1  UNL1        0.1076
      5 C          58.5529   91.2356    5.2493 C.ar    1  UNL1        0.1080
      6 N          58.3544   92.0761    4.0229 N.ar    1  UNL1       -0.2289
      7 C          58.2093   95.7028   -2.7124 C.3     1  UNL1        0.0375
      8 C          59.0452   96.7891   -2.1031 C.3     1  UNL1        0.1423
      9 O          59.4923   96.3254   -0.7484 O.3     1  UNL1       -0.3584
     10 C          58.9327   94.9524   -0.5204 C.3     1  UNL1        0.0961
     11 C          59.7558   95.4729    0.6204 C.3     1  UNL1        0.0487
     12 C          59.9542   94.6324    1.8468 C.3     1  UNL1        0.0946
     13 N          59.3296   93.2713    1.9323 N.pl3   1  UNL1       -0.2931
     14 C          58.5065   92.7508    0.7915 C.3     1  UNL1        0.0946
     15 C          58.3080   93.5914   -0.4349 C.3     1  UNL1        0.0487
     16 C          58.1398   94.5677   -1.7343 C.3     1  UNL1        0.0302
     17 C          57.5575   95.7442   -4.0626 C.3     1  UNL1        0.0443
     18 O          54.9849   95.3863   -4.0033 O.co2   1  UNL1       -0.5492
     19 C          56.3582   94.8880   -4.3431 C.2     1  UNL1        0.0504
     20 O          56.5323   93.5335   -4.9635 O.co2   1  UNL1       -0.5492
     21 C          60.1235   89.9091    6.8380 C.2     1  UNL1        0.3767
     22 N          60.7735   88.5582    6.8853 N.2     1  UNL1       -0.0308
     23 C          60.7585   88.0861    8.3090 C.2     1  UNL1        0.2320
     24 C          61.2600   86.8285    8.9547 C.2     1  UNL1        0.0537
     25 C          61.1022   86.6302   10.4332 C.2     1  UNL1        0.0714
     26 C          60.4429   87.6894   11.2658 C.2     1  UNL1       -0.0133
     27 C          59.9413   88.9470   10.6201 C.3     1  UNL1        0.1037
     28 C          60.0991   89.1453    9.1417 C.2     1  UNL1        0.2178
     29 N          59.7067   90.2720    8.2326 N.2     1  UNL1       -0.0347
     30 C          61.6037   85.3727   11.0790 C.3     1  UNL1        0.4184
     31 F          62.1053   84.1151   11.7248 F       1  UNL1       -0.1659
     32 F          61.2539   85.9262   12.4285 F       1  UNL1       -0.1659
     33 F          61.9535   84.8191    9.7295 F       1  UNL1       -0.1659
@<TRIPOS>UNITY_ATOM_ATTR
18 1
charge -1
@<TRIPOS>BOND
     1    18    19   ar
     2    19    20   ar
     3    19    17    1
     4     7    17    1
     5     7     8    1
     6     8     9    1
     7     9    10    1
     8    10    11    1
     9    11    12    1
    10    12    13    1
    11    13     1    1
    12     1     2   ar
    13     2     3   ar
    14     3     4   ar
    15     4    21    1
    16    21    22    2
    17    22    23    1
    18    23    24    2
    19    24    25    1
    20    25    30    1
    21    30    31    1
    22    30    32    1
    23    30    33    1
    24    25    26    2
    25    26    27    1
    26    27    28    1
    27    28    29    2
    28     4     5   ar
    29     5     6   ar
    30    13    14    1
    31    14    15    1
    32    10    16    1
    33    16     7    1
    34    15    10    1
    35     6     1   ar
    36    29    21    1
    37    28    23    1
@<TRIPOS>MOLECULE
*****
 33 37 0 0 0
SMALL
GASTEIGER

@<TRIPOS>ATOM
      1 C          59.6224   92.4659    3.1177 C.ar    1  UNL1        0.1317
      2 C          58.4725   92.0515    3.9872 C.ar    1  UNL1        0.0346
      3 C          58.7171   91.2041    5.2005 C.ar    1  UNL1        0.0121
      4 C          60.1115   90.7711    5.5443 C.ar    1  UNL1        0.1076
      5 C          61.2613   91.1856    4.6748 C.ar    1  UNL1        0.1080
      6 N          61.0168   92.0330    3.4615 N.ar    1  UNL1       -0.2289
      7 C          58.0872   95.7690   -2.6831 C.3     1  UNL1        0.0375
      8 C          58.9381   96.8557   -2.0955 C.3     1  UNL1        0.1423
      9 O          59.4336   96.3855   -0.7600 O.3     1  UNL1       -0.3584
     10 C          58.8889   95.0082   -0.5222 C.3     1  UNL1        0.0961
     11 C          59.7480   95.5256    0.5933 C.3     1  UNL1        0.0487
     12 C          59.9925   94.6782    1.8065 C.3     1  UNL1        0.0946
     13 N          59.3779   93.3134    1.9044 N.pl3   1  UNL1       -0.2931
     14 C          58.5188   92.7960    0.7889 C.3     1  UNL1        0.0946
     15 C          58.2743   93.6434   -0.4243 C.3     1  UNL1        0.0487
     16 C          58.0568   94.6272   -1.7107 C.3     1  UNL1        0.0302
     17 C          57.3893   95.8158   -4.0099 C.3     1  UNL1        0.0443
     18 O          56.1796   93.6965   -4.9016 O.co2   1  UNL1       -0.5492
     19 C          56.1277   95.0326   -4.2218 C.2     1  UNL1        0.0504
     20 O          54.8142   95.5854   -3.7539 O.co2   1  UNL1       -0.5492
     21 C          60.3560   89.9237    6.7576 C.2     1  UNL1        0.3767
     22 N          61.4895   90.0791    7.7277 N.2     1  UNL1       -0.0308
     23 C          61.3440   89.0236    8.7835 C.2     1  UNL1        0.2320
     24 C          62.1675   88.6936    9.9930 C.2     1  UNL1        0.0537
     25 C          61.7676   87.5558   10.8850 C.2     1  UNL1        0.0714
     26 C          60.5443   86.7480   10.5674 C.2     1  UNL1       -0.0133
     27 C          59.7208   87.0780    9.3578 C.3     1  UNL1        0.1037
     28 C          60.1207   88.2157    8.4659 C.2     1  UNL1        0.2178
     29 N          59.5101   88.7721    7.2138 N.2     1  UNL1       -0.0347
     30 C          62.5911   87.2258   12.0945 C.3     1  UNL1        0.4184
     31 F          63.4146   86.8959   13.3041 F       1  UNL1       -0.1659
     32 F          62.1592   85.7926   11.9976 F       1  UNL1       -0.1659
     33 F          63.0230   88.6591   12.1915 F       1  UNL1       -0.1659
@<TRIPOS>UNITY_ATOM_ATTR
18 1
charge -1
@<TRIPOS>BOND
     1    18    19   ar
     2    19    20   ar
     3    19    17    1
     4     7    17    1
     5     7     8    1
     6     8     9    1
     7     9    10    1
     8    10    11    1
     9    11    12    1
    10    12    13    1
    11    13     1    1
    12     1     2   ar
    13     2     3   ar
    14     3     4   ar
    15     4    21    1
    16    21    22    2
    17    22    23    1
    18    23    24    2
    19    24    25    1
    20    25    30    1
    21    30    31    1
    22    30    32    1
    23    30    33    1
    24    25    26    2
    25    26    27    1
    26    27    28    1
    27    28    29    2
    28     4     5   ar
    29     5     6   ar
    30    13    14    1
    31    14    15    1
    32    10    16    1
    33    16     7    1
    34    15    10    1
    35     6     1   ar
    36    29    21    1
    37    28    23    1
@<TRIPOS>MOLECULE
*****
 33 37 0 0 0
SMALL
GASTEIGER

@<TRIPOS>ATOM
      1 C          60.0641   90.5053    5.9186 C.ar    1  UNL1        0.1317
      2 C          58.6749   90.9309    5.5460 C.ar    1  UNL1        0.0346
      3 C          58.4527   91.7909    4.3372 C.ar    1  UNL1        0.0121
      4 C          59.6198   92.2252    3.5010 C.ar    1  UNL1        0.1076
      5 C          61.0091   91.7996    3.8737 C.ar    1  UNL1        0.1080
      6 N          61.2313   90.9397    5.0825 N.ar    1  UNL1       -0.2289
      7 C          61.2508   86.0246   10.9615 C.3     1  UNL1        0.0375
      8 C          60.8943   87.1801   11.8490 C.3     1  UNL1        0.1423
      9 O          60.5728   88.3550   10.9736 O.3     1  UNL1       -0.3584
     10 C          60.7306   87.9256    9.5450 C.3     1  UNL1        0.0961
     11 C          60.3108   89.3563    9.7093 C.3     1  UNL1        0.0487
     12 C          60.0886   90.2161    8.5005 C.3     1  UNL1        0.0946
     13 N          60.2863   89.6454    7.1275 N.pl3   1  UNL1       -0.2931
     14 C          60.7062   88.2148    6.9632 C.3     1  UNL1        0.0946
     15 C          60.9283   87.3549    8.1720 C.3     1  UNL1        0.0487
     16 C          61.1497   86.4853    9.5376 C.3     1  UNL1        0.0302
     17 C          61.6401   84.6498   11.4177 C.3     1  UNL1        0.0443
     18 O          62.5353   84.9390   13.8394 O.co2   1  UNL1       -0.5492
     19 C          62.7364   84.4768   12.4267 C.2     1  UNL1        0.0504
     20 O          64.0339   83.8415   12.0231 O.co2   1  UNL1       -0.5492
     21 C          59.3977   93.0851    2.2923 C.2     1  UNL1        0.3767
     22 N          58.7067   92.6675    1.0281 N.2     1  UNL1       -0.0308
     23 C          58.7095   93.8379    0.0899 C.2     1  UNL1        0.2320
     24 C          58.1708   94.0121   -1.2991 C.2     1  UNL1        0.0537
     25 C          58.3248   95.3273   -2.0038 C.2     1  UNL1        0.0714
     26 C          59.0175   96.4683   -1.3194 C.2     1  UNL1       -0.0133
     27 C          59.5563   96.2940    0.0696 C.3     1  UNL1        0.1037
     28 C          59.4023   94.9789    0.7743 C.2     1  UNL1        0.2178
     29 N          59.8276   94.5136    2.1354 N.2     1  UNL1       -0.0347
     30 C          57.7861   95.5016   -3.3928 C.3     1  UNL1        0.4184
     31 F          57.2473   95.6758   -4.7818 F       1  UNL1       -0.1659
     32 F          56.9132   96.6234   -2.9136 F       1  UNL1       -0.1659
     33 F          58.6589   94.3798   -3.8720 F       1  UNL1       -0.1659
@<TRIPOS>UNITY_ATOM_ATTR
18 1
charge -1
@<TRIPOS>BOND
     1    18    19   ar
     2    19    20   ar
     3    19    17    1
     4     7    17    1
     5     7     8    1
     6     8     9    1
     7     9    10    1
     8    10    11    1
     9    11    12    1
    10    12    13    1
    11    13     1    1
    12     1     2   ar
    13     2     3   ar
    14     3     4   ar
    15     4    21    1
    16    21    22    2
    17    22    23    1
    18    23    24    2
    19    24    25    1
    20    25    30    1
    21    30    31    1
    22    30    32    1
    23    30    33    1
    24    25    26    2
    25    26    27    1
    26    27    28    1
    27    28    29    2
    28     4     5   ar
    29     5     6   ar
    30    13    14    1
    31    14    15    1
    32    10    16    1
    33    16     7    1
    34    15    10    1
    35     6     1   ar
    36    29    21    1
    37    28    23    1
@<TRIPOS>MOLECULE
*****
 33 37 0 0 0
SMALL
GASTEIGER

@<TRIPOS>ATOM
      1 C          61.4277   92.9562    1.9025 C.ar    1  UNL1        0.1317
      2 C          60.0863   93.1178    2.5540 C.ar    1  UNL1        0.0346
      3 C          59.7465   92.3211    3.7787 C.ar    1  UNL1        0.0121
      4 C          60.7482   91.3629    4.3519 C.ar    1  UNL1        0.1076
      5 C          62.0897   91.2014    3.7003 C.ar    1  UNL1        0.1080
      6 N          62.4294   91.9981    2.4756 N.ar    1  UNL1       -0.2289
      7 C          63.6930   96.3912   -3.5734 C.3     1  UNL1        0.0375
      8 C          62.2467   96.7533   -3.7391 C.3     1  UNL1        0.1423
      9 O          61.4767   96.1075   -2.6255 O.3     1  UNL1       -0.3584
     10 C          62.4470   95.3463   -1.7716 C.3     1  UNL1        0.0961
     11 C          61.0247   95.2615   -1.3028 C.3     1  UNL1        0.0487
     12 C          60.6850   94.4648   -0.0781 C.3     1  UNL1        0.0946
     13 N          61.7675   93.7529    0.6777 N.pl3   1  UNL1       -0.2931
     14 C          63.1898   93.8377    0.2089 C.3     1  UNL1        0.0946
     15 C          63.5295   94.6344   -1.0158 C.3     1  UNL1        0.0487
     16 C          63.8167   95.5216   -2.3575 C.3     1  UNL1        0.0302
     17 C          64.8178   96.8229   -4.4668 C.3     1  UNL1        0.0443
     18 O          64.5979   94.6316   -5.8451 O.co2   1  UNL1       -0.5492
     19 C          65.3511   95.8842   -5.5082 C.2     1  UNL1        0.0504
     20 O          66.6376   96.1981   -6.2127 O.co2   1  UNL1       -0.5492
     21 C          60.4085   90.5662    5.5765 C.2     1  UNL1        0.3767
     22 N          60.7821   90.9148    6.9868 N.2     1  UNL1       -0.0308
     23 C          60.2400   89.8451    7.8878 C.2     1  UNL1        0.2320
     24 C          60.3002   89.6600    9.3752 C.2     1  UNL1        0.0537
     25 C          59.6516   88.4652   10.0091 C.2     1  UNL1        0.0714
     26 C          58.9430   87.4555    9.1557 C.2     1  UNL1       -0.0133
     27 C          58.8828   87.6406    7.6684 C.3     1  UNL1        0.1037
     28 C          59.5314   88.8354    7.0344 C.2     1  UNL1        0.2178
     29 N          59.6355   89.2811    5.6060 N.2     1  UNL1       -0.0347
     30 C          59.7117   88.2801   11.4964 C.3     1  UNL1        0.4184
     31 F          59.7718   88.0950   12.9837 F       1  UNL1       -0.1659
     32 F          59.0206   89.5975   11.6883 F       1  UNL1       -0.1659
     33 F          60.4028   86.9627   11.3045 F       1  UNL1       -0.1659
@<TRIPOS>UNITY_ATOM_ATTR
18 1
charge -1
@<TRIPOS>BOND
     1    18    19   ar
     2    19    20   ar
     3    19    17    1
     4     7    17    1
     5     7     8    1
     6     8     9    1
     7     9    10    1
     8    10    11    1
     9    11    12    1
    10    12    13    1
    11    13     1    1
    12     1     2   ar
    13     2     3   ar
    14     3     4   ar
    15     4    21    1
    16    21    22    2
    17    22    23    1
    18    23    24    2
    19    24    25    1
    20    25    30    1
    21    30    31    1
    22    30    32    1
    23    30    33    1
    24    25    26    2
    25    26    27    1
    26    27    28    1
    27    28    29    2
    28     4     5   ar
    29     5     6   ar
    30    13    14    1
    31    14    15    1
    32    10    16    1
    33    16     7    1
    34    15    10    1
    35     6     1   ar
    36    29    21    1
    37    28    23    1
@<TRIPOS>MOLECULE
*****
 33 37 0 0 0
SMALL
GASTEIGER

@<TRIPOS>ATOM
      1 C          64.4120   89.1854   13.0135 C.ar    1  UNL1        0.1317
      2 C          63.5305   88.5806   11.9613 C.ar    1  UNL1        0.0346
      3 C          63.1113   87.1443   12.0689 C.ar    1  UNL1        0.0121
      4 C          63.5736   86.3130   13.2287 C.ar    1  UNL1        0.1076
      5 C          64.4552   86.9178   14.2809 C.ar    1  UNL1        0.1080
      6 N          64.8744   88.3540   14.1733 N.ar    1  UNL1       -0.2289
      7 C          66.1472   95.6983   11.7944 C.3     1  UNL1        0.0375
      8 C          66.4825   95.7100   13.2564 C.3     1  UNL1        0.1423
      9 O          66.1874   94.3476   13.8105 O.3     1  UNL1       -0.3584
     10 C          65.6697   93.4940   12.6909 C.3     1  UNL1        0.0961
     11 C          65.7505   92.7860   14.0108 C.3     1  UNL1        0.0487
     12 C          65.3312   91.3498   14.1183 C.3     1  UNL1        0.0946
     13 N          64.8313   90.6216   12.9059 N.pl3   1  UNL1       -0.2931
     14 C          64.7505   91.3297   11.5861 C.3     1  UNL1        0.0946
     15 C          65.1698   92.7658   11.4786 C.3     1  UNL1        0.0487
     16 C          65.6449   94.3289   11.4449 C.3     1  UNL1        0.0302
     17 C          66.2893   96.8534   10.8481 C.3     1  UNL1        0.0443
     18 O          66.7851   96.5519    8.3157 O.co2   1  UNL1       -0.5492
     19 C          65.8023   96.7294    9.4348 C.2     1  UNL1        0.0504
     20 O          64.3324   96.7828    9.1406 O.co2   1  UNL1       -0.5492
     21 C          63.1544   84.8768   13.3363 C.2     1  UNL1        0.3767
     22 N          63.6903   83.7384   12.5197 N.2     1  UNL1       -0.0308
     23 C          62.9928   82.4848   12.9581 C.2     1  UNL1        0.2320
     24 C          63.1133   81.0592   12.5075 C.2     1  UNL1        0.0537
     25 C          62.2668   79.9972   13.1445 C.2     1  UNL1        0.0714
     26 C          61.2999   80.3609   14.2320 C.2     1  UNL1       -0.0133
     27 C          61.1794   81.7866   14.6826 C.3     1  UNL1        0.1037
     28 C          62.0259   82.8485   14.0457 C.2     1  UNL1        0.2178
     29 N          62.1258   84.3268   14.2794 N.2     1  UNL1       -0.0347
     30 C          62.3872   78.5716   12.6938 C.3     1  UNL1        0.4184
     31 F          62.5076   77.1460   12.2432 F       1  UNL1       -0.1659
     32 F          62.0802   78.1056   14.0862 F       1  UNL1       -0.1659
     33 F          62.6942   79.0376   11.3015 F       1  UNL1       -0.1659
@<TRIPOS>UNITY_ATOM_ATTR
18 1
charge -1
@<TRIPOS>BOND
     1    18    19   ar
     2    19    20   ar
     3    19    17    1
     4     7    17    1
     5     7     8    1
     6     8     9    1
     7     9    10    1
     8    10    11    1
     9    11    12    1
    10    12    13    1
    11    13     1    1
    12     1     2   ar
    13     2     3   ar
    14     3     4   ar
    15     4    21    1
    16    21    22    2
    17    22    23    1
    18    23    24    2
    19    24    25    1
    20    25    30    1
    21    30    31    1
    22    30    32    1
    23    30    33    1
    24    25    26    2
    25    26    27    1
    26    27    28    1
    27    28    29    2
    28     4     5   ar
    29     5     6   ar
    30    13    14    1
    31    14    15    1
    32    10    16    1
    33    16     7    1
    34    15    10    1
    35     6     1   ar
    36    29    21    1
    37    28    23    1
@<TRIPOS>MOLECULE
*****
 33 37 0 0 0
SMALL
GASTEIGER

@<TRIPOS>ATOM
      1 C          60.2050   90.8030    5.7041 C.ar    1  UNL1        0.1317
      2 C          58.7960   91.1829    5.3571 C.ar    1  UNL1        0.0346
      3 C          58.5205   92.0032    4.1318 C.ar    1  UNL1        0.0121
      4 C          59.6540   92.4434    3.2535 C.ar    1  UNL1        0.1076
      5 C          61.0630   92.0634    3.6005 C.ar    1  UNL1        0.1080
      6 N          61.3385   91.2432    4.8258 N.ar    1  UNL1       -0.2289
      7 C          62.0228   87.5370   11.4439 C.3     1  UNL1        0.0375
      8 C          60.8880   86.6231   11.0873 C.3     1  UNL1        0.1423
      9 O          60.2753   87.1209    9.8117 O.3     1  UNL1       -0.3584
     10 C          61.0314   88.3423    9.3800 C.3     1  UNL1        0.0961
     11 C          59.9110   87.9610    8.4585 C.3     1  UNL1        0.0487
     12 C          59.6355   88.7812    7.2333 C.3     1  UNL1        0.0946
     13 N          60.4805   89.9827    6.9295 N.pl3   1  UNL1       -0.2931
     14 C          61.6010   90.3640    7.8509 C.3     1  UNL1        0.0946
     15 C          61.8765   89.5438    9.0761 C.3     1  UNL1        0.0487
     16 C          62.1115   88.5995   10.3887 C.3     1  UNL1        0.0302
     17 C          62.9127   87.4106   12.6447 C.3     1  UNL1        0.0443
     18 O          62.3374   89.8003   13.4863 O.co2   1  UNL1       -0.5492
     19 C          63.2726   88.6284   13.4430 C.2     1  UNL1        0.0504
     20 O          64.5680   88.6744   14.1980 O.co2   1  UNL1       -0.5492
     21 C          59.3785   93.2636    2.0282 C.2     1  UNL1        0.3767
     22 N          58.6687   92.7929    0.7934 N.2     1  UNL1       -0.0308
     23 C          58.6160   93.9369   -0.1754 C.2     1  UNL1        0.2320
     24 C          58.0388   94.0584   -1.5545 C.2     1  UNL1        0.0537
     25 C          58.1389   95.3576   -2.2977 C.2     1  UNL1        0.0714
     26 C          58.8161   96.5352   -1.6616 C.2     1  UNL1       -0.0133
     27 C          59.3933   96.4137   -0.2825 C.3     1  UNL1        0.1037
     28 C          59.2933   95.1146    0.4607 C.2     1  UNL1        0.2178
     29 N          59.7645   94.6984    1.8225 N.2     1  UNL1       -0.0347
     30 C          57.5617   95.4790   -3.6768 C.3     1  UNL1        0.4184
     31 F          56.9846   95.6005   -5.0560 F       1  UNL1       -0.1659
     32 F          58.1445   96.8558   -3.7994 F       1  UNL1       -0.1659
     33 F          56.9790   94.1023   -3.5542 F       1  UNL1       -0.1659
@<TRIPOS>UNITY_ATOM_ATTR
18 1
charge -1
@<TRIPOS>BOND
     1    18    19   ar
     2    19    20   ar
     3    19    17    1
     4     7    17    1
     5     7     8    1
     6     8     9    1
     7     9    10    1
     8    10    11    1
     9    11    12    1
    10    12    13    1
    11    13     1    1
    12     1     2   ar
    13     2     3   ar
    14     3     4   ar
    15     4    21    1
    16    21    22    2
    17    22    23    1
    18    23    24    2
    19    24    25    1
    20    25    30    1
    21    30    31    1
    22    30    32    1
    23    30    33    1
    24    25    26    2
    25    26    27    1
    26    27    28    1
    27    28    29    2
    28     4     5   ar
    29     5     6   ar
    30    13    14    1
    31    14    15    1
    32    10    16    1
    33    16     7    1
    34    15    10    1
    35     6     1   ar
    36    29    21    1
    37    28    23    1
@<TRIPOS>MOLECULE
*****
 33 37 0 0 0
SMALL
GASTEIGER

@<TRIPOS>ATOM
      1 C          60.5325   88.7422    7.5269 C.ar    1  UNL1        0.1317
      2 C          61.1375   89.2258    8.8114 C.ar    1  UNL1        0.0346
      3 C          61.5110   88.2430    9.8814 C.ar    1  UNL1        0.0121
      4 C          61.2794   86.7766    9.6666 C.ar    1  UNL1        0.1076
      5 C          60.6744   86.2930    8.3820 C.ar    1  UNL1        0.1080
      6 N          60.3010   87.2759    7.3122 N.ar    1  UNL1       -0.2289
      7 C          59.5638   93.3217    2.5263 C.3     1  UNL1        0.0375
      8 C          58.1111   93.0843    2.8152 C.3     1  UNL1        0.1423
      9 O          58.0174   92.0761    3.9221 O.3     1  UNL1       -0.3584
     10 C          59.4122   91.6906    4.3172 C.3     1  UNL1        0.0961
     11 C          58.3409   90.9935    5.1023 C.3     1  UNL1        0.0487
     12 C          58.7144   90.0108    6.1722 C.3     1  UNL1        0.0946
     13 N          60.1591   89.7251    6.4569 N.pl3   1  UNL1       -0.2931
     14 C          61.2304   90.4221    5.6718 C.3     1  UNL1        0.0946
     15 C          60.8569   91.4049    4.6020 C.3     1  UNL1        0.0487
     16 C          60.3679   92.4605    3.4546 C.3     1  UNL1        0.0302
     17 C          60.1155   94.2564    1.4910 C.3     1  UNL1        0.0443
     18 O          59.7870   96.5519    2.6626 O.co2   1  UNL1       -0.5492
     19 C          60.6547   95.5950    1.9002 C.2     1  UNL1        0.0504
     20 O          62.0617   95.9766    1.5469 O.co2   1  UNL1       -0.5492
     21 C          61.6528   85.7938   10.7365 C.2     1  UNL1        0.3767
     22 N          61.7745   84.3085   10.5657 N.2     1  UNL1       -0.0308
     23 C          62.1670   83.7205   11.8886 C.2     1  UNL1        0.2320
     24 C          62.4299   82.3084   12.3209 C.2     1  UNL1        0.0537
     25 C          62.8138   82.0181   13.7417 C.2     1  UNL1        0.0714
     26 C          62.9347   83.1399   14.7300 C.2     1  UNL1       -0.0133
     27 C          62.6718   84.5520   14.2977 C.3     1  UNL1        0.1037
     28 C          62.2879   84.8423   12.8770 C.2     1  UNL1        0.2178
     29 N          61.9701   86.1237   12.1650 N.2     1  UNL1       -0.0347
     30 C          63.0767   80.6061   14.1740 C.3     1  UNL1        0.4184
     31 F          63.3396   79.1940   14.6064 F       1  UNL1       -0.1659
     32 F          61.6222   80.4345   14.4982 F       1  UNL1       -0.1659
     33 F          64.5312   80.7776   13.8499 F       1  UNL1       -0.1659
@<TRIPOS>UNITY_ATOM_ATTR
18 1
charge -1
@<TRIPOS>BOND
     1    18    19   ar
     2    19    20   ar
     3    19    17    1
     4     7    17    1
     5     7     8    1
     6     8     9    1
     7     9    10    1
     8    10    11    1
     9    11    12    1
    10    12    13    1
    11    13     1    1
    12     1     2   ar
    13     2     3   ar
    14     3     4   ar
    15     4    21    1
    16    21    22    2
    17    22    23    1
    18    23    24    2
    19    24    25    1
    20    25    30    1
    21    30    31    1
    22    30    32    1
    23    30    33    1
    24    25    26    2
    25    26    27    1
    26    27    28    1
    27    28    29    2
    28     4     5   ar
    29     5     6   ar
    30    13    14    1
    31    14    15    1
    32    10    16    1
    33    16     7    1
    34    15    10    1
    35     6     1   ar
    36    29    21    1
    37    28    23    1
