@<TRIPOS>MOLECULE
*****
 40 45 0 0 0
SMALL
GASTEIGER

@<TRIPOS>ATOM
      1 C          58.8764   89.5295    6.7883 C.ar    1  UNL1        0.2400
      2 N          59.0128   88.9030    8.1444 N.ar    1  UNL1       -0.2090
      3 C          60.1044   89.3503    9.0708 C.ar    1  UNL1        0.1021
      4 C          61.2281   90.3995    8.9543 C.ar    1  UNL1        0.0207
      5 C          60.3640   90.3150    7.7311 C.ar    1  UNL1        0.0221
      6 C          59.8316   90.6034    6.3587 C.ar    1  UNL1        0.1178
      7 N          59.6952   91.2299    5.0027 N.pl3   1  UNL1       -0.2104
      8 S          59.9712   92.1190    3.8266 S.O2    1  UNL1        0.0737
      9 O          59.3190   92.2847    2.4860 O.2     1  UNL1       -0.1499
     10 O          58.7994   91.2058    3.6190 O.2     1  UNL1       -0.1499
     11 C          60.6263   93.1634    2.9721 C.ar    1  UNL1        0.1253
     12 C          60.0940   93.4518    1.5998 C.ar    1  UNL1        0.0202
     13 C          60.7491   94.4962    0.7454 C.ar    1  UNL1        0.0015
     14 C          61.9365   95.2522    1.2634 C.ar    1  UNL1        0.0046
     15 C          62.4689   94.9639    2.6357 C.ar    1  UNL1        0.0547
     16 C          61.8138   93.9195    3.4901 C.ar    1  UNL1        0.0247
     17 C          63.9091   95.9669    3.1076 C.2     1  UNL1        0.2461
     18 O          64.1851   96.8560    1.9314 O.2     1  UNL1       -0.2701
     19 N          65.0007   96.4141    4.0341 N.am    1  UNL1       -0.2969
     20 C          65.8648   96.4987    5.2572 C.3     1  UNL1        0.1166
     21 C          66.3972   96.2103    6.6296 C.ar    1  UNL1       -0.0025
     22 C          67.5678   96.7836    7.4530 C.ar    1  UNL1       -0.0026
     23 C          68.1001   96.4951    8.8254 C.ar    1  UNL1       -0.0002
     24 C          67.4450   95.4507    9.6798 C.ar    1  UNL1        0.0015
     25 C          66.2576   94.6947    9.1618 C.ar    1  UNL1        0.0175
     26 C          66.5336   95.5838    7.9857 C.ar    1  UNL1       -0.0011
     27 C          65.6024   93.6503   10.0162 C.ar    1  UNL1        0.0844
     28 N          66.6941   94.0975   10.9427 N.ar    1  UNL1       -0.2240
     29 C          66.8305   93.4710   12.2987 C.ar    1  UNL1        0.1988
     30 N          65.8753   92.3972   12.7283 N.ar    1  UNL1       -0.2240
     31 C          64.7836   91.9499   11.8018 C.ar    1  UNL1        0.0845
     32 C          63.6349   90.7678   12.1199 C.ar    1  UNL1        0.0192
     33 C          62.5194   90.2684   11.2503 C.ar    1  UNL1        0.0016
     34 C          62.3197   90.8468    9.8807 C.ar    1  UNL1        0.0017
     35 C          63.5071   91.6028   10.3987 C.ar    1  UNL1        0.0030
     36 C          64.6472   92.5764   10.4458 C.ar    1  UNL1        0.0354
     37 H          58.9158   90.7336    4.6627 H       1  UNL1        0.1739
     38 H          65.4306   97.0996    3.4733 H       1  UNL1        0.1501
     39 C          56.6077   89.9753    5.6032 C.3     1  UNL1        0.2543
     40 O          57.7848   89.0823    5.8619 O.3     1  UNL1       -0.4553
@<TRIPOS>BOND
     1    39    40    1
     2    40     1    1
     3     1     2   ar
     4     2     3   ar
     5     3     4   ar
     6     4     5   ar
     7     5     6   ar
     8     6     7    1
     9     7     8    1
    10     8     9    2
    11     8    10    2
    12     8    11    1
    13    11    12   ar
    14    12    13   ar
    15    13    14   ar
    16    14    15   ar
    17    15    16   ar
    18    15    17    1
    19    17    18    2
    20    17    19   am
    21    19    20    1
    22    20    21    1
    23    21    22   ar
    24    22    23   ar
    25    23    24   ar
    26    24    25   ar
    27    25    26   ar
    28    25    27    1
    29    27    28   ar
    30    28    29   ar
    31    29    30   ar
    32    30    31   ar
    33    31    32   ar
    34    32    33   ar
    35    33    34   ar
    36    34    35   ar
    37    35    36   ar
    38     6     1   ar
    39    16    11   ar
    40    26    21   ar
    41    36    27   ar
    42    34     4    1
    43    36    31   ar
    44     7    37    1
    45    19    38    1
@<TRIPOS>MOLECULE
*****
 40 45 0 0 0
SMALL
GASTEIGER

@<TRIPOS>ATOM
      1 C          59.7646   92.3366    3.3928 C.ar    1  UNL1        0.2400
      2 N          58.3304   91.9366    3.2110 N.ar    1  UNL1       -0.2090
      3 C          57.6395   92.1949    1.9049 C.ar    1  UNL1        0.1021
      4 C          58.0913   92.8337    0.5764 C.ar    1  UNL1        0.0207
      5 C          59.1706   92.8000    1.6177 C.ar    1  UNL1        0.0221
      6 C          60.5079   92.9949    2.2685 C.ar    1  UNL1        0.1178
      7 N          61.9421   93.3949    2.4503 N.pl3   1  UNL1       -0.2104
      8 S          63.3001   93.9518    2.1411 S.O2    1  UNL1        0.0737
      9 O          64.5682   94.0718    2.9333 O.2     1  UNL1       -0.1499
     10 O          63.1865   93.4003    3.5315 O.2     1  UNL1       -0.1499
     11 C          64.4183   94.5984    1.3784 C.ar    1  UNL1        0.1253
     12 C          65.7556   94.7933    2.0292 C.ar    1  UNL1        0.0202
     13 C          66.8737   95.4398    1.2664 C.ar    1  UNL1        0.0015
     14 C          66.6545   95.8915   -0.1471 C.ar    1  UNL1        0.0046
     15 C          65.3172   95.6966   -0.7978 C.ar    1  UNL1        0.0547
     16 C          64.1991   95.0500   -0.0351 C.ar    1  UNL1        0.0247
     17 C          65.2213   96.2988   -2.5098 C.2     1  UNL1        0.2461
     18 O          66.5793   96.8557   -2.8190 O.2     1  UNL1       -0.2701
     19 N          64.5303   96.5570   -3.8159 N.am    1  UNL1       -0.2969
     20 C          63.4512   96.5907   -4.8572 C.3     1  UNL1        0.1166
     21 C          62.1138   96.3958   -5.5079 C.ar    1  UNL1       -0.0025
     22 C          61.5578   96.7320   -6.9061 C.ar    1  UNL1       -0.0026
     23 C          60.2204   96.5371   -7.5568 C.ar    1  UNL1       -0.0002
     24 C          59.1023   95.8905   -6.7941 C.ar    1  UNL1        0.0015
     25 C          59.3215   95.4389   -5.3806 C.ar    1  UNL1        0.0175
     26 C          60.6796   95.9958   -5.6898 C.ar    1  UNL1       -0.0011
     27 C          58.2034   94.7924   -4.6179 C.ar    1  UNL1        0.0844
     28 N          57.5125   95.0506   -5.9241 N.ar    1  UNL1       -0.2240
     29 C          56.0783   94.6506   -6.1058 C.ar    1  UNL1        0.1988
     30 N          55.3350   93.9923   -4.9815 N.ar    1  UNL1       -0.2240
     31 C          56.0259   93.7341   -3.6753 C.ar    1  UNL1        0.0845
     32 C          55.3477   93.0116   -2.3202 C.ar    1  UNL1        0.0192
     33 C          55.9700   92.7209   -0.9866 C.ar    1  UNL1        0.0016
     34 C          57.4005   93.0919   -0.7297 C.ar    1  UNL1        0.0017
     35 C          57.1813   93.5436   -2.1432 C.ar    1  UNL1        0.0030
     36 C          57.4601   94.1341   -3.4935 C.ar    1  UNL1        0.0354
     37 H          62.0860   93.0985    3.3780 H       1  UNL1        0.1739
     38 H          65.2642   96.9814   -4.3165 H       1  UNL1        0.1501
     39 C          59.9611   90.9915    5.6069 C.3     1  UNL1        0.2543
     40 O          60.4554   92.0784    4.6989 O.3     1  UNL1       -0.4553
@<TRIPOS>BOND
     1    39    40    1
     2    40     1    1
     3     1     2   ar
     4     2     3   ar
     5     3     4   ar
     6     4     5   ar
     7     5     6   ar
     8     6     7    1
     9     7     8    1
    10     8     9    2
    11     8    10    2
    12     8    11    1
    13    11    12   ar
    14    12    13   ar
    15    13    14   ar
    16    14    15   ar
    17    15    16   ar
    18    15    17    1
    19    17    18    2
    20    17    19   am
    21    19    20    1
    22    20    21    1
    23    21    22   ar
    24    22    23   ar
    25    23    24   ar
    26    24    25   ar
    27    25    26   ar
    28    25    27    1
    29    27    28   ar
    30    28    29   ar
    31    29    30   ar
    32    30    31   ar
    33    31    32   ar
    34    32    33   ar
    35    33    34   ar
    36    34    35   ar
    37    35    36   ar
    38     6     1   ar
    39    16    11   ar
    40    26    21   ar
    41    36    27   ar
    42    34     4    1
    43    36    31   ar
    44     7    37    1
    45    19    38    1
