@<TRIPOS>MOLECULE
*****
 37 41 0 0 0
SMALL
GASTEIGER

@<TRIPOS>ATOM
      1 N          62.9878   90.7052   12.2801 N.3     1  UNL1       -0.2679
      2 C          64.2133   91.5426   12.0634 C.3     1  UNL1        0.0978
      3 C          64.6272   91.9202   10.6720 C.3     1  UNL1        0.0224
      4 C          65.8527   92.7576   10.4552 C.3     1  UNL1        0.0065
      5 C          66.6643   93.2173   11.6299 C.3     1  UNL1        0.0277
      6 C          66.2505   92.8397   13.0213 C.ar    1  UNL1       -0.0073
      7 C          67.0621   93.2994   14.1960 C.ar    1  UNL1       -0.0015
      8 C          66.6482   92.9217   15.5874 C.ar    1  UNL1        0.0203
      9 C          65.4227   92.0844   15.8042 C.ar    1  UNL1        0.0985
     10 N          64.6111   91.6246   14.6295 N.ar    1  UNL1       -0.2471
     11 C          65.0250   92.0023   13.2380 C.ar    1  UNL1        0.0695
     12 C          62.9461   89.7141   13.4052 C.3     1  UNL1        0.0725
     13 C          63.8977   88.5546   13.4191 C.3     1  UNL1        0.0188
     14 C          64.3294   87.9543   14.7241 C.3     1  UNL1        0.0185
     15 C          64.4358   86.4648   14.8657 C.3     1  UNL1        0.0686
     16 N          63.1936   85.6252   14.9117 N.3     1  UNL1       -0.2985
     17 H          63.0660   85.3410   15.8829 H       1  UNL1        0.1232
     18 C          62.6610   80.4196   12.5752 C.3     1  UNL1        0.0000
     19 C          62.9087   81.8905   12.4175 C.3     1  UNL1        0.0001
     20 C          63.0109   81.4543   10.9860 C.3     1  UNL1        0.0000
     21 C          63.1919   83.2099   11.7626 C.3     1  UNL1        0.0014
     22 C          63.2868   84.4549   12.5940 C.3     1  UNL1        0.0157
     23 C          63.0986   84.3803   14.0803 C.3     1  UNL1        0.0540
     24 C          62.8154   83.0608   14.7351 C.3     1  UNL1        0.0157
     25 C          62.7205   81.8160   13.9037 C.3     1  UNL1        0.0014
     26 C          61.8041   90.8589   11.3718 C.3     1  UNL1        0.0886
     27 C          61.4271   89.7483   10.4366 C.3     1  UNL1        0.0748
     28 C          62.3591   88.5911   10.2321 C.3     1  UNL1        0.0432
     29 C          61.9821   87.4805    9.2970 C.ar    1  UNL1       -0.0234
     30 C          62.9142   86.3232    9.0925 C.ar    1  UNL1       -0.0045
     31 C          62.5371   85.2126    8.1574 C.ar    1  UNL1       -0.0003
     32 C          61.2279   85.2594    7.4267 C.ar    1  UNL1       -0.0003
     33 C          60.2958   86.4167    7.6311 C.ar    1  UNL1       -0.0032
     34 C          60.6729   87.5272    8.5663 C.ar    1  UNL1       -0.0103
     35 C          59.7408   88.6846    8.7708 C.3     1  UNL1        0.0953
     36 N          60.1179   89.7951    9.7059 N.3     1  UNL1       -0.2934
     37 H          59.3864   89.8440   10.4151 H       1  UNL1        0.1236
@<TRIPOS>BOND
     1    18    19    1
     2    19    20    1
     3    19    21    1
     4    21    22    1
     5    22    23    1
     6    23    16    1
     7    16    15    1
     8    15    14    1
     9    14    13    1
    10    13    12    1
    11    12     1    1
    12     1    26    1
    13    27    26    1
    14    27    28    1
    15    28    29    1
    16    29    30   ar
    17    30    31   ar
    18    31    32   ar
    19    32    33   ar
    20    33    34   ar
    21    34    35    1
    22    35    36    1
    23     2     1    1
    24     2     3    1
    25     3     4    1
    26     4     5    1
    27     5     6    1
    28     6     7   ar
    29     7     8   ar
    30     8     9   ar
    31     9    10   ar
    32    10    11   ar
    33    23    24    1
    34    24    25    1
    35    25    19    1
    36    36    27    1
    37    11     2    1
    38    34    29   ar
    39    11     6   ar
    40    16    17    1
    41    36    37    1
@<TRIPOS>MOLECULE
*****
 37 41 0 0 0
SMALL
GASTEIGER

@<TRIPOS>ATOM
      1 N          65.1647   92.3271   12.0343 N.3     1  UNL1       -0.2679
      2 C          66.2590   92.6857   11.0731 C.3     1  UNL1        0.0978
      3 C          67.3011   91.6699   10.7100 C.3     1  UNL1        0.0224
      4 C          68.3954   92.0286    9.7488 C.3     1  UNL1        0.0065
      5 C          68.4474   93.4031    9.1505 C.3     1  UNL1        0.0277
      6 C          67.4052   94.4189    9.5136 C.ar    1  UNL1       -0.0073
      7 C          67.4572   95.7936    8.9153 C.ar    1  UNL1       -0.0015
      8 C          66.4150   96.8094    9.2784 C.ar    1  UNL1        0.0203
      9 C          65.3208   96.4507   10.2396 C.ar    1  UNL1        0.0985
     10 N          65.2688   95.0762   10.8379 N.ar    1  UNL1       -0.2471
     11 C          66.3110   94.0603   10.4748 C.ar    1  UNL1        0.0695
     12 C          63.8044   91.9606   11.5195 C.3     1  UNL1        0.0725
     13 C          63.4390   90.5186   11.3263 C.3     1  UNL1        0.0188
     14 C          62.7763   90.0766   10.0554 C.3     1  UNL1        0.0185
     15 C          61.3935   89.4965   10.0930 C.3     1  UNL1        0.0686
     16 N          61.0994   88.2116    9.3769 N.3     1  UNL1       -0.2985
     17 H          60.0958   88.0505    9.4614 H       1  UNL1        0.1232
     18 C          63.3838   83.5944   11.8876 C.3     1  UNL1        0.0000
     19 C          63.1378   84.4077   10.6515 C.3     1  UNL1        0.0001
     20 C          63.9328   83.2783   10.0663 C.3     1  UNL1        0.0000
     21 C          63.1679   84.8287    9.2121 C.3     1  UNL1        0.0014
     22 C          62.4885   86.0967    8.7872 C.3     1  UNL1        0.0157
     23 C          61.7789   86.9437    9.8017 C.3     1  UNL1        0.0540
     24 C          61.7488   86.5226   11.2411 C.3     1  UNL1        0.0157
     25 C          62.4283   85.2546   11.6660 C.3     1  UNL1        0.0014
     26 C          65.4308   92.3349   13.5105 C.3     1  UNL1        0.0886
     27 C          64.8035   91.2952   14.3912 C.3     1  UNL1        0.0748
     28 C          64.9758   89.8396   14.0730 C.3     1  UNL1        0.0432
     29 C          64.3484   88.7999   14.9537 C.ar    1  UNL1       -0.0234
     30 C          64.5207   87.3442   14.6355 C.ar    1  UNL1       -0.0045
     31 C          63.8934   86.3047   15.5162 C.ar    1  UNL1       -0.0003
     32 C          63.0938   86.7207   16.7151 C.ar    1  UNL1       -0.0003
     33 C          62.9215   88.1764   17.0334 C.ar    1  UNL1       -0.0032
     34 C          63.5488   89.2160   16.1527 C.ar    1  UNL1       -0.0103
     35 C          63.3766   90.6717   16.4709 C.3     1  UNL1        0.0953
     36 N          64.0039   91.7113   15.5902 N.3     1  UNL1       -0.2934
     37 H          64.6256   92.2623   16.1820 H       1  UNL1        0.1236
@<TRIPOS>BOND
     1    18    19    1
     2    19    20    1
     3    19    21    1
     4    21    22    1
     5    22    23    1
     6    23    16    1
     7    16    15    1
     8    15    14    1
     9    14    13    1
    10    13    12    1
    11    12     1    1
    12     1    26    1
    13    27    26    1
    14    27    28    1
    15    28    29    1
    16    29    30   ar
    17    30    31   ar
    18    31    32   ar
    19    32    33   ar
    20    33    34   ar
    21    34    35    1
    22    35    36    1
    23     2     1    1
    24     2     3    1
    25     3     4    1
    26     4     5    1
    27     5     6    1
    28     6     7   ar
    29     7     8   ar
    30     8     9   ar
    31     9    10   ar
    32    10    11   ar
    33    23    24    1
    34    24    25    1
    35    25    19    1
    36    36    27    1
    37    11     2    1
    38    34    29   ar
    39    11     6   ar
    40    16    17    1
    41    36    37    1
@<TRIPOS>MOLECULE
*****
 37 41 0 0 0
SMALL
GASTEIGER

@<TRIPOS>ATOM
      1 N          63.9661   90.1046   14.4224 N.3     1  UNL1       -0.2679
      2 C          64.9127   91.2682   14.4207 C.3     1  UNL1        0.0978
      3 C          65.5980   91.6794   15.6901 C.3     1  UNL1        0.0224
      4 C          66.5445   92.8430   15.6884 C.3     1  UNL1        0.0065
      5 C          66.8058   93.5955   14.4174 C.3     1  UNL1        0.0277
      6 C          66.1204   93.1844   13.1481 C.ar    1  UNL1       -0.0073
      7 C          66.3816   93.9369   11.8770 C.ar    1  UNL1       -0.0015
      8 C          65.6963   93.5258   10.6077 C.ar    1  UNL1        0.0203
      9 C          64.7498   92.3622   10.6093 C.ar    1  UNL1        0.0985
     10 N          64.4885   91.6097   11.8803 N.ar    1  UNL1       -0.2471
     11 C          65.1739   92.0208   13.1497 C.ar    1  UNL1        0.0695
     12 C          62.9325   89.9801   15.5022 C.3     1  UNL1        0.0725
     13 C          63.2667   89.2732   16.7824 C.3     1  UNL1        0.0188
     14 C          62.8288   87.8539   16.9917 C.3     1  UNL1        0.0185
     15 C          63.5131   86.7414   16.2542 C.3     1  UNL1        0.0686
     16 N          62.8810   85.3824   16.1922 N.3     1  UNL1       -0.2985
     17 H          63.2878   84.8336   16.9496 H       1  UNL1        0.1232
     18 C          62.8556   81.5501   11.9315 C.3     1  UNL1        0.0000
     19 C          63.2387   82.9030   12.4540 C.3     1  UNL1        0.0001
     20 C          63.8044   82.9896   11.0675 C.3     1  UNL1        0.0000
     21 C          63.8182   84.2859   12.4950 C.3     1  UNL1        0.0014
     22 C          63.6990   85.1124   13.7411 C.3     1  UNL1        0.0157
     23 C          63.0002   84.5560   14.9462 C.3     1  UNL1        0.0540
     24 C          62.4207   83.1730   14.9051 C.3     1  UNL1        0.0157
     25 C          62.5400   82.3465   13.6591 C.3     1  UNL1        0.0014
     26 C          64.0531   89.0655   13.3441 C.3     1  UNL1        0.0886
     27 C          62.9719   88.9662   12.3091 C.3     1  UNL1        0.0748
     28 C          62.8373   87.7221   11.4821 C.3     1  UNL1        0.0432
     29 C          61.7560   87.6228   10.4471 C.ar    1  UNL1       -0.0234
     30 C          61.6214   86.3787    9.6201 C.ar    1  UNL1       -0.0045
     31 C          60.5402   86.2795    8.5852 C.ar    1  UNL1       -0.0003
     32 C          59.5937   87.4244    8.3772 C.ar    1  UNL1       -0.0003
     33 C          59.7283   88.6685    9.2042 C.ar    1  UNL1       -0.0032
     34 C          60.8095   88.7678   10.2392 C.ar    1  UNL1       -0.0103
     35 C          60.9442   90.0119   11.0662 C.3     1  UNL1        0.0953
     36 N          62.0254   90.1112   12.1012 N.3     1  UNL1       -0.2934
     37 H          61.5630   90.2770   12.9951 H       1  UNL1        0.1236
@<TRIPOS>BOND
     1    18    19    1
     2    19    20    1
     3    19    21    1
     4    21    22    1
     5    22    23    1
     6    23    16    1
     7    16    15    1
     8    15    14    1
     9    14    13    1
    10    13    12    1
    11    12     1    1
    12     1    26    1
    13    27    26    1
    14    27    28    1
    15    28    29    1
    16    29    30   ar
    17    30    31   ar
    18    31    32   ar
    19    32    33   ar
    20    33    34   ar
    21    34    35    1
    22    35    36    1
    23     2     1    1
    24     2     3    1
    25     3     4    1
    26     4     5    1
    27     5     6    1
    28     6     7   ar
    29     7     8   ar
    30     8     9   ar
    31     9    10   ar
    32    10    11   ar
    33    23    24    1
    34    24    25    1
    35    25    19    1
    36    36    27    1
    37    11     2    1
    38    34    29   ar
    39    11     6   ar
    40    16    17    1
    41    36    37    1
@<TRIPOS>MOLECULE
*****
 37 41 0 0 0
SMALL
GASTEIGER

@<TRIPOS>ATOM
      1 N          63.3457   88.8681   13.6998 N.3     1  UNL1       -0.2679
      2 C          62.9573   89.1612   12.2809 C.3     1  UNL1        0.0978
      3 C          63.1230   90.5459   11.7287 C.3     1  UNL1        0.0224
      4 C          62.7346   90.8391   10.3098 C.3     1  UNL1        0.0065
      5 C          62.1805   89.7474    9.4431 C.3     1  UNL1        0.0277
      6 C          62.0147   88.3627    9.9953 C.ar    1  UNL1       -0.0073
      7 C          61.4605   87.2710    9.1286 C.ar    1  UNL1       -0.0015
      8 C          61.2948   85.8862    9.6808 C.ar    1  UNL1        0.0203
      9 C          61.6832   85.5931   11.0997 C.ar    1  UNL1        0.0985
     10 N          62.2374   86.6847   11.9664 N.ar    1  UNL1       -0.2471
     11 C          62.4031   88.0696   11.4142 C.ar    1  UNL1        0.0695
     12 C          63.9337   87.5350   14.0563 C.3     1  UNL1        0.0725
     13 C          64.0158   87.1115   15.4930 C.3     1  UNL1        0.0188
     14 C          64.0983   85.6551   15.8420 C.3     1  UNL1        0.0185
     15 C          62.8465   84.8341   15.9350 C.3     1  UNL1        0.0686
     16 N          62.8812   83.3726   15.5985 N.3     1  UNL1       -0.2985
     17 H          63.6279   82.9595   16.1572 H       1  UNL1        0.1232
     18 C          63.1391   80.9742   10.4002 C.3     1  UNL1        0.0000
     19 C          63.5592   82.0577   11.3487 C.3     1  UNL1        0.0001
     20 C          64.3254   82.4697   10.1268 C.3     1  UNL1        0.0000
     21 C          64.2453   83.2843   11.8727 C.3     1  UNL1        0.0014
     22 C          64.0194   83.7226   13.2894 C.3     1  UNL1        0.0157
     23 C          63.1072   82.9344   14.1819 C.3     1  UNL1        0.0540
     24 C          62.4211   81.7077   13.6578 C.3     1  UNL1        0.0157
     25 C          62.6470   81.2694   12.2412 C.3     1  UNL1        0.0014
     26 C          63.1461   89.9080   14.7621 C.3     1  UNL1        0.0886
     27 C          64.2837   90.8007   15.1610 C.3     1  UNL1        0.0748
     28 C          65.5645   90.7774   14.3807 C.3     1  UNL1        0.0432
     29 C          66.7021   91.6701   14.7796 C.ar    1  UNL1       -0.0234
     30 C          67.9830   91.6468   13.9993 C.ar    1  UNL1       -0.0045
     31 C          69.1205   92.5395   14.3981 C.ar    1  UNL1       -0.0003
     32 C          68.9772   93.4554   15.5773 C.ar    1  UNL1       -0.0003
     33 C          67.6964   93.4787   16.3576 C.ar    1  UNL1       -0.0032
     34 C          66.5588   92.5861   15.9587 C.ar    1  UNL1       -0.0103
     35 C          65.2779   92.6094   16.7390 C.3     1  UNL1        0.0953
     36 N          64.1404   91.7167   16.3402 N.3     1  UNL1       -0.2934
     37 H          63.3438   92.3236   16.1465 H       1  UNL1        0.1236
@<TRIPOS>BOND
     1    18    19    1
     2    19    20    1
     3    19    21    1
     4    21    22    1
     5    22    23    1
     6    23    16    1
     7    16    15    1
     8    15    14    1
     9    14    13    1
    10    13    12    1
    11    12     1    1
    12     1    26    1
    13    27    26    1
    14    27    28    1
    15    28    29    1
    16    29    30   ar
    17    30    31   ar
    18    31    32   ar
    19    32    33   ar
    20    33    34   ar
    21    34    35    1
    22    35    36    1
    23     2     1    1
    24     2     3    1
    25     3     4    1
    26     4     5    1
    27     5     6    1
    28     6     7   ar
    29     7     8   ar
    30     8     9   ar
    31     9    10   ar
    32    10    11   ar
    33    23    24    1
    34    24    25    1
    35    25    19    1
    36    36    27    1
    37    11     2    1
    38    34    29   ar
    39    11     6   ar
    40    16    17    1
    41    36    37    1
@<TRIPOS>MOLECULE
*****
 37 41 0 0 0
SMALL
GASTEIGER

@<TRIPOS>ATOM
      1 N          63.5880   88.9087   13.9799 N.3     1  UNL1       -0.2679
      2 C          63.3449   89.5476   12.6446 C.3     1  UNL1        0.0978
      3 C          64.0092   90.8484   12.3035 C.3     1  UNL1        0.0224
      4 C          63.7661   91.4873   10.9683 C.3     1  UNL1        0.0065
      5 C          62.8587   90.8253    9.9742 C.3     1  UNL1        0.0277
      6 C          62.1943   89.5244   10.3153 C.ar    1  UNL1       -0.0073
      7 C          61.2869   88.8623    9.3212 C.ar    1  UNL1       -0.0015
      8 C          60.6225   87.5615    9.6623 C.ar    1  UNL1        0.0203
      9 C          60.8656   86.9226   10.9975 C.ar    1  UNL1        0.0985
     10 N          61.7731   87.5846   11.9916 N.ar    1  UNL1       -0.2471
     11 C          62.4374   88.8856   11.6505 C.ar    1  UNL1        0.0695
     12 C          62.9569   89.4845   15.2128 C.3     1  UNL1        0.0725
     13 C          63.6692   90.5500   15.9922 C.3     1  UNL1        0.0188
     14 C          64.8745   91.2264   15.4095 C.3     1  UNL1        0.0185
     15 C          65.5382   92.3473   16.1531 C.3     1  UNL1        0.0686
     16 N          66.6131   93.1554   15.4885 N.3     1  UNL1       -0.2985
     17 H          66.4040   94.1357   15.6775 H       1  UNL1        0.1232
     18 C          66.8730   93.4718    9.7724 C.3     1  UNL1        0.0000
     19 C          67.2765   92.8007   11.0518 C.3     1  UNL1        0.0001
     20 C          68.0187   91.9486   10.0655 C.3     1  UNL1        0.0000
     21 C          67.9377   91.8337   11.9886 C.3     1  UNL1        0.0014
     22 C          67.7166   91.9519   13.4676 C.3     1  UNL1        0.0157
     23 C          66.8343   93.0372   14.0096 C.3     1  UNL1        0.0540
     24 C          66.1731   94.0042   13.0727 C.3     1  UNL1        0.0157
     25 C          66.3942   93.8860   11.5939 C.3     1  UNL1        0.0014
     26 C          64.4621   87.6941   14.0821 C.3     1  UNL1        0.0886
     27 C          63.8436   86.3335   14.2099 C.3     1  UNL1        0.0748
     28 C          63.7970   85.4164   13.0238 C.3     1  UNL1        0.0432
     29 C          63.1785   84.0558   13.1516 C.ar    1  UNL1       -0.0234
     30 C          63.1319   83.1388   11.9655 C.ar    1  UNL1       -0.0045
     31 C          62.5134   81.7782   12.0934 C.ar    1  UNL1       -0.0003
     32 C          61.9416   81.3348   13.4072 C.ar    1  UNL1       -0.0003
     33 C          61.9882   82.2518   14.5933 C.ar    1  UNL1       -0.0032
     34 C          62.6066   83.6123   14.4655 C.ar    1  UNL1       -0.0103
     35 C          62.6533   84.5295   15.6516 C.3     1  UNL1        0.0953
     36 N          63.2717   85.8900   15.5238 N.3     1  UNL1       -0.2934
     37 H          64.0299   85.9340   16.2047 H       1  UNL1        0.1236
@<TRIPOS>BOND
     1    18    19    1
     2    19    20    1
     3    19    21    1
     4    21    22    1
     5    22    23    1
     6    23    16    1
     7    16    15    1
     8    15    14    1
     9    14    13    1
    10    13    12    1
    11    12     1    1
    12     1    26    1
    13    27    26    1
    14    27    28    1
    15    28    29    1
    16    29    30   ar
    17    30    31   ar
    18    31    32   ar
    19    32    33   ar
    20    33    34   ar
    21    34    35    1
    22    35    36    1
    23     2     1    1
    24     2     3    1
    25     3     4    1
    26     4     5    1
    27     5     6    1
    28     6     7   ar
    29     7     8   ar
    30     8     9   ar
    31     9    10   ar
    32    10    11   ar
    33    23    24    1
    34    24    25    1
    35    25    19    1
    36    36    27    1
    37    11     2    1
    38    34    29   ar
    39    11     6   ar
    40    16    17    1
    41    36    37    1
@<TRIPOS>MOLECULE
*****
 37 41 0 0 0
SMALL
GASTEIGER

@<TRIPOS>ATOM
      1 N          63.8674   89.8626   13.4547 N.3     1  UNL1       -0.2679
      2 C          64.2791   90.7082   14.6233 C.3     1  UNL1        0.0978
      3 C          63.3685   90.8455   15.8073 C.3     1  UNL1        0.0224
      4 C          63.7802   91.6910   16.9759 C.3     1  UNL1        0.0065
      5 C          65.1023   92.3993   16.9605 C.3     1  UNL1        0.0277
      6 C          66.0128   92.2620   15.7764 C.ar    1  UNL1       -0.0073
      7 C          67.3351   92.9702   15.7609 C.ar    1  UNL1       -0.0015
      8 C          68.2456   92.8329   14.5768 C.ar    1  UNL1        0.0203
      9 C          67.8340   91.9874   13.4083 C.ar    1  UNL1        0.0985
     10 N          66.5118   91.2791   13.4237 N.ar    1  UNL1       -0.2471
     11 C          65.6012   91.4164   14.6078 C.ar    1  UNL1        0.0695
     12 C          63.8597   88.3676   13.5764 C.3     1  UNL1        0.0725
     13 C          64.5327   87.7066   14.7427 C.3     1  UNL1        0.0188
     14 C          63.7084   87.1074   15.8434 C.3     1  UNL1        0.0185
     15 C          63.6244   85.6171   15.9912 C.3     1  UNL1        0.0686
     16 N          62.5094   84.8598   15.3330 N.3     1  UNL1       -0.2985
     17 H          62.1745   84.1779   16.0137 H       1  UNL1        0.1232
     18 C          63.7697   82.8519   10.1155 C.3     1  UNL1        0.0000
     19 C          63.2665   82.6129   11.5082 C.3     1  UNL1        0.0001
     20 C          63.1499   81.2265   10.9477 C.3     1  UNL1        0.0000
     21 C          62.7228   81.8924   12.7062 C.3     1  UNL1        0.0014
     22 C          62.4704   82.6414   13.9812 C.3     1  UNL1        0.0157
     23 C          62.7617   84.1108   14.0581 C.3     1  UNL1        0.0540
     24 C          63.3055   84.8313   12.8600 C.3     1  UNL1        0.0157
     25 C          63.5578   84.0823   11.5851 C.3     1  UNL1        0.0014
     26 C          63.4636   90.5121   12.1643 C.3     1  UNL1        0.0886
     27 C          62.4727   89.8370   11.2628 C.3     1  UNL1        0.0748
     28 C          62.8098   88.5187   10.6316 C.3     1  UNL1        0.0432
     29 C          61.8189   87.8437    9.7301 C.ar    1  UNL1       -0.0234
     30 C          62.1559   86.5254    9.0989 C.ar    1  UNL1       -0.0045
     31 C          61.1651   85.8504    8.1974 C.ar    1  UNL1       -0.0003
     32 C          59.8373   86.4938    7.9272 C.ar    1  UNL1       -0.0003
     33 C          59.5003   87.8121    8.5584 C.ar    1  UNL1       -0.0032
     34 C          60.4911   88.4870    9.4598 C.ar    1  UNL1       -0.0103
     35 C          60.1541   89.8054   10.0911 C.3     1  UNL1        0.0953
     36 N          61.1449   90.4804   10.9926 N.3     1  UNL1       -0.2934
     37 H          60.6868   90.6008   11.8959 H       1  UNL1        0.1236
@<TRIPOS>BOND
     1    18    19    1
     2    19    20    1
     3    19    21    1
     4    21    22    1
     5    22    23    1
     6    23    16    1
     7    16    15    1
     8    15    14    1
     9    14    13    1
    10    13    12    1
    11    12     1    1
    12     1    26    1
    13    27    26    1
    14    27    28    1
    15    28    29    1
    16    29    30   ar
    17    30    31   ar
    18    31    32   ar
    19    32    33   ar
    20    33    34   ar
    21    34    35    1
    22    35    36    1
    23     2     1    1
    24     2     3    1
    25     3     4    1
    26     4     5    1
    27     5     6    1
    28     6     7   ar
    29     7     8   ar
    30     8     9   ar
    31     9    10   ar
    32    10    11   ar
    33    23    24    1
    34    24    25    1
    35    25    19    1
    36    36    27    1
    37    11     2    1
    38    34    29   ar
    39    11     6   ar
    40    16    17    1
    41    36    37    1
@<TRIPOS>MOLECULE
*****
 37 41 0 0 0
SMALL
GASTEIGER

@<TRIPOS>ATOM
      1 N          64.1964   88.5547   14.1869 N.3     1  UNL1       -0.2679
      2 C          64.2819   89.7797   15.0484 C.3     1  UNL1        0.0978
      3 C          63.3870   89.9196   16.2441 C.3     1  UNL1        0.0224
      4 C          63.4725   91.1445   17.1056 C.3     1  UNL1        0.0065
      5 C          64.4528   92.2295   16.7716 C.3     1  UNL1        0.0277
      6 C          65.3477   92.0896   15.5759 C.ar    1  UNL1       -0.0073
      7 C          66.3281   93.1746   15.2418 C.ar    1  UNL1       -0.0015
      8 C          67.2230   93.0347   14.0462 C.ar    1  UNL1        0.0203
      9 C          67.1375   91.8098   13.1846 C.ar    1  UNL1        0.0985
     10 N          66.1572   90.7248   13.5187 N.ar    1  UNL1       -0.2471
     11 C          65.2622   90.8647   14.7144 C.ar    1  UNL1        0.0695
     12 C          63.4402   88.5996   12.8923 C.3     1  UNL1        0.0725
     13 C          62.7411   89.8597   12.4753 C.3     1  UNL1        0.0188
     14 C          61.7139   89.8211   11.3830 C.3     1  UNL1        0.0185
     15 C          60.3136   89.3767   11.6856 C.3     1  UNL1        0.0686
     16 N          59.9241   87.9411   11.4926 N.3     1  UNL1       -0.2985
     17 H          59.8621   87.5253   12.4219 H       1  UNL1        0.1232
     18 C          62.8446   84.9333    7.5855 C.3     1  UNL1        0.0000
     19 C          62.5187   85.2184    9.0216 C.3     1  UNL1        0.0001
     20 C          63.5177   84.1132    9.1959 C.3     1  UNL1        0.0000
     21 C          62.5396   85.1198   10.5182 C.3     1  UNL1        0.0014
     22 C          61.6748   86.0273   11.3419 C.3     1  UNL1        0.0157
     23 C          60.7889   87.0335   10.6690 C.3     1  UNL1        0.0540
     24 C          60.7680   87.1322    9.1723 C.3     1  UNL1        0.0157
     25 C          61.6328   86.2246    8.3487 C.3     1  UNL1        0.0014
     26 C          64.8672   87.2849   14.6199 C.3     1  UNL1        0.0886
     27 C          64.1124   85.9890   14.5871 C.3     1  UNL1        0.0748
     28 C          64.4753   84.9350   13.5835 C.3     1  UNL1        0.0432
     29 C          63.7205   83.6390   13.5507 C.ar    1  UNL1       -0.0234
     30 C          64.0834   82.5850   12.5471 C.ar    1  UNL1       -0.0045
     31 C          63.3286   81.2892   12.5143 C.ar    1  UNL1       -0.0003
     32 C          62.2109   81.0474   13.4850 C.ar    1  UNL1       -0.0003
     33 C          61.8480   82.1015   14.4886 C.ar    1  UNL1       -0.0032
     34 C          62.6028   83.3973   14.5214 C.ar    1  UNL1       -0.0103
     35 C          62.2399   84.4515   15.5250 C.3     1  UNL1        0.0953
     36 N          62.9947   85.7473   15.5578 N.3     1  UNL1       -0.2934
     37 H          63.3933   85.8323   16.4929 H       1  UNL1        0.1236
@<TRIPOS>BOND
     1    18    19    1
     2    19    20    1
     3    19    21    1
     4    21    22    1
     5    22    23    1
     6    23    16    1
     7    16    15    1
     8    15    14    1
     9    14    13    1
    10    13    12    1
    11    12     1    1
    12     1    26    1
    13    27    26    1
    14    27    28    1
    15    28    29    1
    16    29    30   ar
    17    30    31   ar
    18    31    32   ar
    19    32    33   ar
    20    33    34   ar
    21    34    35    1
    22    35    36    1
    23     2     1    1
    24     2     3    1
    25     3     4    1
    26     4     5    1
    27     5     6    1
    28     6     7   ar
    29     7     8   ar
    30     8     9   ar
    31     9    10   ar
    32    10    11   ar
    33    23    24    1
    34    24    25    1
    35    25    19    1
    36    36    27    1
    37    11     2    1
    38    34    29   ar
    39    11     6   ar
    40    16    17    1
    41    36    37    1
@<TRIPOS>MOLECULE
*****
 37 41 0 0 0
SMALL
GASTEIGER

@<TRIPOS>ATOM
      1 N          64.2134   90.3179   14.3907 N.3     1  UNL1       -0.2679
      2 C          65.1657   91.4766   14.3719 C.3     1  UNL1        0.0978
      3 C          65.8974   91.8664   15.6219 C.3     1  UNL1        0.0224
      4 C          66.8498   93.0251   15.6031 C.3     1  UNL1        0.0065
      5 C          67.0705   93.7940   14.3342 C.3     1  UNL1        0.0277
      6 C          66.3389   93.4041   13.0842 C.ar    1  UNL1       -0.0073
      7 C          66.5596   94.1730   11.8152 C.ar    1  UNL1       -0.0015
      8 C          65.8280   93.7832   10.5652 C.ar    1  UNL1        0.0203
      9 C          64.8756   92.6245   10.5840 C.ar    1  UNL1        0.0985
     10 N          64.6548   91.8556   11.8528 N.ar    1  UNL1       -0.2471
     11 C          65.3865   92.2454   13.1030 C.ar    1  UNL1        0.0695
     12 C          63.5748   89.8511   13.1162 C.3     1  UNL1        0.0725
     13 C          62.0800   89.8179   12.9946 C.3     1  UNL1        0.0188
     14 C          61.4334   89.9672   11.6494 C.3     1  UNL1        0.0185
     15 C          60.0418   89.4544   11.4251 C.3     1  UNL1        0.0686
     16 N          59.7792   87.9776   11.4151 N.3     1  UNL1       -0.2985
     17 H          59.7564   87.6759   12.3892 H       1  UNL1        0.1232
     18 C          63.5996   84.1309    9.5580 C.3     1  UNL1        0.0000
     19 C          62.5961   85.2060    9.2626 C.3     1  UNL1        0.0001
     20 C          63.0313   84.8657    7.8681 C.3     1  UNL1        0.0000
     21 C          61.7439   86.1629    8.4830 C.3     1  UNL1        0.0014
     22 C          60.8049   87.0868    9.2005 C.3     1  UNL1        0.0157
     23 C          60.7182   87.0537   10.6976 C.3     1  UNL1        0.0540
     24 C          61.5705   86.0968   11.4772 C.3     1  UNL1        0.0157
     25 C          62.5094   85.1729   10.7598 C.3     1  UNL1        0.0014
     26 C          63.8996   89.6259   15.6839 C.3     1  UNL1        0.0886
     27 C          63.6850   88.1414   15.7075 C.3     1  UNL1        0.0748
     28 C          64.2814   87.2803   14.6339 C.3     1  UNL1        0.0432
     29 C          64.0669   85.7958   14.6574 C.ar    1  UNL1       -0.0234
     30 C          64.6632   84.9347   13.5838 C.ar    1  UNL1       -0.0045
     31 C          64.4487   83.4504   13.6074 C.ar    1  UNL1       -0.0003
     32 C          63.6377   82.8271   14.7047 C.ar    1  UNL1       -0.0003
     33 C          63.0414   83.6883   15.7783 C.ar    1  UNL1       -0.0032
     34 C          63.2559   85.1726   15.7547 C.ar    1  UNL1       -0.0103
     35 C          62.6595   86.0338   16.8284 C.3     1  UNL1        0.0953
     36 N          62.8741   87.5182   16.8048 N.3     1  UNL1       -0.2934
     37 H          63.3298   87.7638   17.6836 H       1  UNL1        0.1236
@<TRIPOS>BOND
     1    18    19    1
     2    19    20    1
     3    19    21    1
     4    21    22    1
     5    22    23    1
     6    23    16    1
     7    16    15    1
     8    15    14    1
     9    14    13    1
    10    13    12    1
    11    12     1    1
    12     1    26    1
    13    27    26    1
    14    27    28    1
    15    28    29    1
    16    29    30   ar
    17    30    31   ar
    18    31    32   ar
    19    32    33   ar
    20    33    34   ar
    21    34    35    1
    22    35    36    1
    23     2     1    1
    24     2     3    1
    25     3     4    1
    26     4     5    1
    27     5     6    1
    28     6     7   ar
    29     7     8   ar
    30     8     9   ar
    31     9    10   ar
    32    10    11   ar
    33    23    24    1
    34    24    25    1
    35    25    19    1
    36    36    27    1
    37    11     2    1
    38    34    29   ar
    39    11     6   ar
    40    16    17    1
    41    36    37    1
@<TRIPOS>MOLECULE
*****
 37 41 0 0 0
SMALL
GASTEIGER

@<TRIPOS>ATOM
      1 N          63.9357   90.1003   13.6070 N.3     1  UNL1       -0.2679
      2 C          64.6851   91.2697   13.0406 C.3     1  UNL1        0.0978
      3 C          64.4978   91.6557   11.6033 C.3     1  UNL1        0.0224
      4 C          65.2473   92.8251   11.0370 C.3     1  UNL1        0.0065
      5 C          66.1839   93.6087   11.9080 C.3     1  UNL1        0.0277
      6 C          66.3712   93.2227   13.3453 C.ar    1  UNL1       -0.0073
      7 C          67.3079   94.0063   14.2164 C.ar    1  UNL1       -0.0015
      8 C          67.4952   93.6203   15.6537 C.ar    1  UNL1        0.0203
      9 C          66.7457   92.4508   16.2200 C.ar    1  UNL1        0.0985
     10 N          65.8091   91.6673   15.3490 N.ar    1  UNL1       -0.2471
     11 C          65.6218   92.0532   13.9116 C.ar    1  UNL1        0.0695
     12 C          62.5647   89.7695   13.0962 C.3     1  UNL1        0.0725
     13 C          62.2686   89.8620   11.6285 C.3     1  UNL1        0.0188
     14 C          60.9226   90.3328   11.1632 C.3     1  UNL1        0.0185
     15 C          59.6881   89.5720   11.5469 C.3     1  UNL1        0.0686
     16 N          59.7262   88.0749   11.6330 N.3     1  UNL1       -0.2985
     17 H          60.1877   87.8422   12.5123 H       1  UNL1        0.1232
     18 C          61.5830   85.2813    6.9866 C.3     1  UNL1        0.0000
     19 C          61.7780   85.6877    8.4173 C.3     1  UNL1        0.0001
     20 C          63.0208   84.8749    8.2057 C.3     1  UNL1        0.0000
     21 C          62.4046   85.8117    9.7744 C.3     1  UNL1        0.0014
     22 C          61.7206   86.6075   10.8464 C.3     1  UNL1        0.0157
     23 C          60.4101   87.2792   10.5611 C.3     1  UNL1        0.0540
     24 C          59.7835   87.1551    9.2039 C.3     1  UNL1        0.0157
     25 C          60.4674   86.3593    8.1320 C.3     1  UNL1        0.0014
     26 C          64.5572   89.2616   14.6841 C.3     1  UNL1        0.0886
     27 C          64.0969   87.8495   14.8947 C.3     1  UNL1        0.0748
     28 C          64.1994   86.8529   13.7784 C.3     1  UNL1        0.0432
     29 C          63.7391   85.4408   13.9891 C.ar    1  UNL1       -0.0234
     30 C          63.8416   84.4441   12.8728 C.ar    1  UNL1       -0.0045
     31 C          63.3813   83.0322   13.0835 C.ar    1  UNL1       -0.0003
     32 C          62.8185   82.6169   14.4104 C.ar    1  UNL1       -0.0003
     33 C          62.7160   83.6136   15.5267 C.ar    1  UNL1       -0.0032
     34 C          63.1763   85.0255   15.3160 C.ar    1  UNL1       -0.0103
     35 C          63.0738   86.0223   16.4323 C.3     1  UNL1        0.0953
     36 N          63.5341   87.4342   16.2217 N.3     1  UNL1       -0.2934
     37 H          64.2573   87.6151   16.9179 H       1  UNL1        0.1236
@<TRIPOS>BOND
     1    18    19    1
     2    19    20    1
     3    19    21    1
     4    21    22    1
     5    22    23    1
     6    23    16    1
     7    16    15    1
     8    15    14    1
     9    14    13    1
    10    13    12    1
    11    12     1    1
    12     1    26    1
    13    27    26    1
    14    27    28    1
    15    28    29    1
    16    29    30   ar
    17    30    31   ar
    18    31    32   ar
    19    32    33   ar
    20    33    34   ar
    21    34    35    1
    22    35    36    1
    23     2     1    1
    24     2     3    1
    25     3     4    1
    26     4     5    1
    27     5     6    1
    28     6     7   ar
    29     7     8   ar
    30     8     9   ar
    31     9    10   ar
    32    10    11   ar
    33    23    24    1
    34    24    25    1
    35    25    19    1
    36    36    27    1
    37    11     2    1
    38    34    29   ar
    39    11     6   ar
    40    16    17    1
    41    36    37    1
