@<TRIPOS>MOLECULE
*****
 41 45 0 0 0
SMALL
GASTEIGER

@<TRIPOS>ATOM
      1 O          58.8741   89.7010    6.3361 O.3     1  UNL1       -0.4727
      2 C          60.8533   92.3756    3.3064 C.ar    1  UNL1        0.0481
      3 C          59.3809   92.4971    3.5657 C.ar    1  UNL1        0.0176
      4 C          58.7212   91.6056    4.5756 C.ar    1  UNL1        0.0382
      5 C          59.5338   90.5926    5.3262 C.ar    1  UNL1        0.1388
      6 C          61.0062   90.4711    5.0668 C.ar    1  UNL1        0.0382
      7 C          61.6659   91.3626    4.0569 C.ar    1  UNL1        0.0176
      8 N          62.8325   95.0502    0.2767 N.3     1  UNL1       -0.1543
      9 C          63.5930   93.9048    0.8762 C.3     1  UNL1        0.1169
     10 C          62.9333   93.0132    1.8861 C.3     1  UNL1        0.1099
     11 N          61.5130   93.2672    2.2965 N.pl3   1  UNL1       -0.3045
     12 C          60.7526   94.4126    1.6969 C.3     1  UNL1        0.1099
     13 C          61.4123   95.3041    0.6870 C.3     1  UNL1        0.1169
     14 S          63.4923   95.9418   -0.7333 S.O2    1  UNL1        0.0669
     15 O          62.2994   96.8509   -0.7099 O.2     1  UNL1       -0.1556
     16 O          64.6851   95.0326   -0.7566 O.2     1  UNL1       -0.1556
     17 C          64.1520   96.8333   -1.7432 C.3     1  UNL1        0.3179
     18 C          64.9616   95.7326   -4.4140 C.3     1  UNL1        0.1782
     19 S          64.5568   96.2830   -3.0785 S.O2    1  UNL1        0.0161
     20 O          63.1824   95.7101   -3.2590 O.2     1  UNL1       -0.1712
     21 O          65.9313   96.8558   -2.8980 O.2     1  UNL1       -0.1712
     22 C          59.3066   89.7453    7.7716 C.3     1  UNL1        0.2374
     23 C          60.0055   88.5662    8.3811 C.3     1  UNL1        0.1909
     24 C          59.5701   87.1343    8.2802 C.3     1  UNL1        0.1783
     25 O          60.5580   86.2952    9.0351 O.3     1  UNL1       -0.3267
     26 C          61.6039   87.2084    9.6026 C.3     1  UNL1        0.2296
     27 O          61.2625   88.6121    9.1984 O.3     1  UNL1       -0.3255
     28 C          62.1896   85.9404   10.1493 C.ar    1  UNL1        0.0409
     29 C          62.0100   85.5949   11.5980 C.ar    1  UNL1        0.0022
     30 C          62.5957   84.3268   12.1448 C.ar    1  UNL1        0.0113
     31 C          63.3610   83.4043   11.2430 C.ar    1  UNL1        0.0585
     32 CL         63.9467   82.1362   11.7897 Cl      1  UNL1       -0.0822
     33 C          63.5405   83.7498    9.7943 C.ar    1  UNL1        0.0226
     34 C          62.9549   85.0178    9.2476 C.ar    1  UNL1        0.0591
     35 CL         63.1344   85.3633    7.7990 Cl      1  UNL1       -0.0824
     36 C          62.7723   87.8567   10.2844 C.3     1  UNL1        0.1682
     37 N          62.5590   88.6712   11.5257 N.ar    1  UNL1       -0.3025
     38 C          63.5419   88.8462   12.6451 C.ar    1  UNL1        0.0982
     39 C          62.9157   89.7369   13.6768 C.ar    1  UNL1        0.1193
     40 N          61.5457   90.1125   13.1950 N.ar    1  UNL1       -0.2223
     41 C          61.3253   89.4538   11.8656 C.ar    1  UNL1        0.1788
@<TRIPOS>BOND
     1    18    19    1
     2    19    20    2
     3    19    21    2
     4    19    17    1
     5    17    14    1
     6    14    15    2
     7    14    16    2
     8    14     8    1
     9     8     9    1
    10     9    10    1
    11    10    11    1
    12    11     2    1
    13     2     3   ar
    14     3     4   ar
    15     4     5   ar
    16     5     1    1
    17     1    22    1
    18    23    22    1
    19    23    24    1
    20    24    25    1
    21    25    26    1
    22    26    36    1
    23    36    37    1
    24    37    38   ar
    25    38    39   ar
    26    39    40   ar
    27    40    41   ar
    28    26    28    1
    29    28    29   ar
    30    29    30   ar
    31    30    31   ar
    32    31    32    1
    33    31    33   ar
    34    33    34   ar
    35    34    35    1
    36    26    27    1
    37     5     6   ar
    38     6     7   ar
    39    11    12    1
    40    12    13    1
    41    13     8    1
    42     7     2   ar
    43    27    23    1
    44    41    37   ar
    45    34    28   ar
@<TRIPOS>MOLECULE
*****
 41 45 0 0 0
SMALL
GASTEIGER

@<TRIPOS>ATOM
      1 O          58.5088   90.3714    5.4078 O.3     1  UNL1       -0.4727
      2 C          60.4824   87.7365    8.4758 C.ar    1  UNL1        0.0481
      3 C          60.5792   89.2286    8.5948 C.ar    1  UNL1        0.0176
      4 C          59.9214   90.1069    7.5722 C.ar    1  UNL1        0.0382
      5 C          59.1666   89.4931    6.4305 C.ar    1  UNL1        0.1388
      6 C          59.0698   88.0010    6.3114 C.ar    1  UNL1        0.0382
      7 C          59.7277   87.1227    7.3340 C.ar    1  UNL1        0.0176
      8 N          62.4561   85.1017   11.5437 N.3     1  UNL1       -0.1543
      9 C          61.5161   86.1861   11.9797 C.3     1  UNL1        0.1169
     10 C          60.8582   87.0644   10.9571 C.3     1  UNL1        0.1099
     11 N          61.1403   86.8582    9.4984 N.pl3   1  UNL1       -0.3045
     12 C          62.0804   85.7737    9.0623 C.3     1  UNL1        0.1099
     13 C          62.7383   84.8955   10.0850 C.3     1  UNL1        0.1169
     14 S          63.1140   84.2234   12.5663 S.O2    1  UNL1        0.0669
     15 O          63.0711   85.3471   13.5590 O.2     1  UNL1       -0.1556
     16 O          63.1569   83.0997   11.5736 O.2     1  UNL1       -0.1556
     17 C          63.7719   83.3451   13.5889 C.3     1  UNL1        0.3179
     18 C          62.7903   80.5422   14.0134 C.3     1  UNL1        0.1782
     19 S          63.2811   81.9437   13.8012 S.O2    1  UNL1        0.0161
     20 O          62.0530   82.4762   14.4779 O.2     1  UNL1       -0.1712
     21 O          64.5093   81.4111   13.1244 O.2     1  UNL1       -0.1712
     22 C          58.8617   91.8272    5.3310 C.3     1  UNL1        0.2374
     23 C          59.7925   92.3178    4.2618 C.3     1  UNL1        0.1909
     24 C          61.1516   91.7631    3.9535 C.3     1  UNL1        0.1783
     25 O          61.7266   92.5518    2.8144 O.3     1  UNL1       -0.3267
     26 C          60.7229   93.5939    2.4188 C.3     1  UNL1        0.2296
     27 O          59.5275   93.4493    3.3134 O.3     1  UNL1       -0.3255
     28 C          61.7534   93.9729    1.3970 C.ar    1  UNL1        0.0409
     29 C          62.5356   95.2430    1.5559 C.ar    1  UNL1        0.0022
     30 C          63.5661   95.6220    0.5340 C.ar    1  UNL1        0.0113
     31 C          63.8146   94.7310   -0.6468 C.ar    1  UNL1        0.0585
     32 CL         64.8452   95.1100   -1.6687 Cl      1  UNL1       -0.0822
     33 C          63.0324   93.4609   -0.8057 C.ar    1  UNL1        0.0226
     34 C          62.0019   93.0819    0.2161 C.ar    1  UNL1        0.0591
     35 CL         61.2198   91.8119    0.0572 Cl      1  UNL1       -0.0824
     36 C          59.9345   94.7153    1.8096 C.3     1  UNL1        0.1682
     37 N          59.1992   94.5010    0.5199 N.ar    1  UNL1       -0.3025
     38 C          58.3124   93.3362    0.1937 C.ar    1  UNL1        0.0982
     39 C          57.7867   93.5293   -1.1978 C.ar    1  UNL1        0.1193
     40 N          58.3486   94.8135   -1.7316 N.ar    1  UNL1       -0.2223
     41 C          59.2216   95.4141   -0.6699 C.ar    1  UNL1        0.1788
@<TRIPOS>BOND
     1    18    19    1
     2    19    20    2
     3    19    21    2
     4    19    17    1
     5    17    14    1
     6    14    15    2
     7    14    16    2
     8    14     8    1
     9     8     9    1
    10     9    10    1
    11    10    11    1
    12    11     2    1
    13     2     3   ar
    14     3     4   ar
    15     4     5   ar
    16     5     1    1
    17     1    22    1
    18    23    22    1
    19    23    24    1
    20    24    25    1
    21    25    26    1
    22    26    36    1
    23    36    37    1
    24    37    38   ar
    25    38    39   ar
    26    39    40   ar
    27    40    41   ar
    28    26    28    1
    29    28    29   ar
    30    29    30   ar
    31    30    31   ar
    32    31    32    1
    33    31    33   ar
    34    33    34   ar
    35    34    35    1
    36    26    27    1
    37     5     6   ar
    38     6     7   ar
    39    11    12    1
    40    12    13    1
    41    13     8    1
    42     7     2   ar
    43    27    23    1
    44    41    37   ar
    45    34    28   ar
@<TRIPOS>MOLECULE
*****
 41 45 0 0 0
SMALL
GASTEIGER

@<TRIPOS>ATOM
      1 O          58.4908   90.3530    5.1833 O.3     1  UNL1       -0.4727
      2 C          60.5050   88.2645    8.6229 C.ar    1  UNL1        0.0481
      3 C          59.7723   87.4660    7.5858 C.ar    1  UNL1        0.0176
      4 C          59.1009   88.1621    6.4393 C.ar    1  UNL1        0.0382
      5 C          59.1622   89.6569    6.3298 C.ar    1  UNL1        0.1388
      6 C          59.8949   90.4554    7.3668 C.ar    1  UNL1        0.0382
      7 C          60.5663   89.7592    8.5133 C.ar    1  UNL1        0.0176
      8 N          62.5193   86.1759   12.0624 N.3     1  UNL1       -0.1543
      9 C          61.7284   85.3842   11.0636 C.3     1  UNL1        0.1169
     10 C          61.0570   86.0804    9.9171 C.3     1  UNL1        0.1099
     11 N          61.1765   87.5683    9.7694 N.pl3   1  UNL1       -0.3045
     12 C          61.9674   88.3600   10.7682 C.3     1  UNL1        0.1099
     13 C          62.6388   87.6638   11.9147 C.3     1  UNL1        0.1169
     14 S          63.1907   85.4797   13.2090 S.O2    1  UNL1        0.0669
     15 O          62.7015   84.1588   12.6934 O.2     1  UNL1       -0.1556
     16 O          63.6800   86.8007   13.7245 O.2     1  UNL1       -0.1556
     17 C          63.8621   84.7836   14.3555 C.3     1  UNL1        0.3179
     18 C          63.3251   85.6700   17.1708 C.3     1  UNL1        0.1782
     19 S          63.5936   85.2267   15.7631 S.O2    1  UNL1        0.0161
     20 O          65.0310   85.6291   15.9107 O.2     1  UNL1       -0.1712
     21 O          62.1561   84.8244   15.6155 O.2     1  UNL1       -0.1712
     22 C          58.6614   91.8320    5.0002 C.3     1  UNL1        0.2374
     23 C          59.6557   92.3549    4.0062 C.3     1  UNL1        0.1909
     24 C          61.0510   91.8434    3.8023 C.3     1  UNL1        0.1783
     25 O          61.6869   92.6534    2.7117 O.3     1  UNL1       -0.3267
     26 C          60.6847   93.6656    2.2416 C.3     1  UNL1        0.2296
     27 O          59.4293   93.4812    3.0416 O.3     1  UNL1       -0.3255
     28 C          61.7783   94.0798    1.3023 C.ar    1  UNL1        0.0409
     29 C          62.5192   95.3635    1.5334 C.ar    1  UNL1        0.0022
     30 C          63.6129   95.7777    0.5940 C.ar    1  UNL1        0.0113
     31 C          63.9655   94.9084   -0.5764 C.ar    1  UNL1        0.0585
     32 CL         65.0592   95.3226   -1.5157 Cl      1  UNL1       -0.0822
     33 C          63.2246   93.6247   -0.8075 C.ar    1  UNL1        0.0226
     34 C          62.1310   93.2105    0.1318 C.ar    1  UNL1        0.0591
     35 CL         61.3900   91.9270   -0.0992 Cl      1  UNL1       -0.0824
     36 C          59.9110   94.7645    1.5752 C.3     1  UNL1        0.1682
     37 N          59.1051   94.4742    0.3438 N.ar    1  UNL1       -0.3025
     38 C          58.3680   93.2008    0.0524 C.ar    1  UNL1        0.0982
     39 C          57.7022   93.3460   -1.2839 C.ar    1  UNL1        0.1193
     40 N          58.0280   94.7091   -1.8184 N.ar    1  UNL1       -0.2223
     41 C          58.8951   95.4064   -0.8124 C.ar    1  UNL1        0.1788
@<TRIPOS>BOND
     1    18    19    1
     2    19    20    2
     3    19    21    2
     4    19    17    1
     5    17    14    1
     6    14    15    2
     7    14    16    2
     8    14     8    1
     9     8     9    1
    10     9    10    1
    11    10    11    1
    12    11     2    1
    13     2     3   ar
    14     3     4   ar
    15     4     5   ar
    16     5     1    1
    17     1    22    1
    18    23    22    1
    19    23    24    1
    20    24    25    1
    21    25    26    1
    22    26    36    1
    23    36    37    1
    24    37    38   ar
    25    38    39   ar
    26    39    40   ar
    27    40    41   ar
    28    26    28    1
    29    28    29   ar
    30    29    30   ar
    31    30    31   ar
    32    31    32    1
    33    31    33   ar
    34    33    34   ar
    35    34    35    1
    36    26    27    1
    37     5     6   ar
    38     6     7   ar
    39    11    12    1
    40    12    13    1
    41    13     8    1
    42     7     2   ar
    43    27    23    1
    44    41    37   ar
    45    34    28   ar
@<TRIPOS>MOLECULE
*****
 41 45 0 0 0
SMALL
GASTEIGER

@<TRIPOS>ATOM
      1 O          64.3756   89.2066   14.6789 O.3     1  UNL1       -0.4727
      2 C          63.6356   85.0564   13.1047 C.ar    1  UNL1        0.0481
      3 C          63.1443   86.2481   12.3377 C.ar    1  UNL1        0.0176
      4 C          63.3910   87.6315   12.8624 C.ar    1  UNL1        0.0382
      5 C          64.1290   87.8232   14.1541 C.ar    1  UNL1        0.1388
      6 C          64.6203   86.6315   14.9211 C.ar    1  UNL1        0.0382
      7 C          64.3736   85.2480   14.3964 C.ar    1  UNL1        0.0176
      8 N          62.8956   80.9061   11.5306 N.3     1  UNL1       -0.1543
      9 C          63.5188   81.9441   10.6450 C.3     1  UNL1        0.1169
     10 C          63.7655   83.3275   11.1698 C.3     1  UNL1        0.1099
     11 N          63.3890   83.6729   12.5800 N.pl3   1  UNL1       -0.3045
     12 C          62.7658   82.6350   13.4655 C.3     1  UNL1        0.1099
     13 C          62.5191   81.2516   12.9408 C.3     1  UNL1        0.1169
     14 S          62.6490   79.5227   11.0059 S.O2    1  UNL1        0.0669
     15 O          62.7286   80.0415    9.6007 O.2     1  UNL1       -0.1556
     16 O          62.5693   79.0039   12.4110 O.2     1  UNL1       -0.1556
     17 C          62.4023   78.1393   10.4811 C.3     1  UNL1        0.3179
     18 C          64.6713   76.5394    9.3444 C.3     1  UNL1        0.1782
     19 S          63.5368   77.3394    9.9128 S.O2    1  UNL1        0.0161
     20 O          63.2041   76.2085   10.8404 O.2     1  UNL1       -0.1712
     21 O          63.8694   78.4702    8.9852 O.2     1  UNL1       -0.1712
     22 C          63.5811   90.3628   14.1480 C.3     1  UNL1        0.2374
     23 C          64.1995   91.3071   13.1600 C.3     1  UNL1        0.1909
     24 C          63.9302   91.3406   11.6848 C.3     1  UNL1        0.1783
     25 O          64.7599   92.4378   11.0869 O.3     1  UNL1       -0.3267
     26 C          65.5421   93.0825   12.1926 C.3     1  UNL1        0.2296
     27 O          65.1957   92.3837   13.4739 O.3     1  UNL1       -0.3255
     28 C          66.0752   93.9542   11.0945 C.ar    1  UNL1        0.0409
     29 C          65.5360   95.3417   10.9097 C.ar    1  UNL1        0.0022
     30 C          66.0691   96.2134    9.8115 C.ar    1  UNL1        0.0113
     31 C          67.1415   95.6977    8.8983 C.ar    1  UNL1        0.0585
     32 CL         67.6747   96.5694    7.8001 Cl      1  UNL1       -0.0822
     33 C          67.6807   94.3101    9.0831 C.ar    1  UNL1        0.0226
     34 C          67.1476   93.4385   10.1812 C.ar    1  UNL1        0.0591
     35 CL         67.6867   92.0510   10.3661 Cl      1  UNL1       -0.0824
     36 C          66.4357   93.9095   13.0688 C.3     1  UNL1        0.1682
     37 N          67.3129   93.2433   14.0869 N.ar    1  UNL1       -0.3025
     38 C          67.6314   93.7687   15.4552 C.ar    1  UNL1        0.0982
     39 C          68.5411   92.7849   16.1294 C.ar    1  UNL1        0.1193
     40 N          68.7847   91.6513   15.1777 N.ar    1  UNL1       -0.2223
     41 C          68.0257   91.9347   13.9154 C.ar    1  UNL1        0.1788
@<TRIPOS>BOND
     1    18    19    1
     2    19    20    2
     3    19    21    2
     4    19    17    1
     5    17    14    1
     6    14    15    2
     7    14    16    2
     8    14     8    1
     9     8     9    1
    10     9    10    1
    11    10    11    1
    12    11     2    1
    13     2     3   ar
    14     3     4   ar
    15     4     5   ar
    16     5     1    1
    17     1    22    1
    18    23    22    1
    19    23    24    1
    20    24    25    1
    21    25    26    1
    22    26    36    1
    23    36    37    1
    24    37    38   ar
    25    38    39   ar
    26    39    40   ar
    27    40    41   ar
    28    26    28    1
    29    28    29   ar
    30    29    30   ar
    31    30    31   ar
    32    31    32    1
    33    31    33   ar
    34    33    34   ar
    35    34    35    1
    36    26    27    1
    37     5     6   ar
    38     6     7   ar
    39    11    12    1
    40    12    13    1
    41    13     8    1
    42     7     2   ar
    43    27    23    1
    44    41    37   ar
    45    34    28   ar
@<TRIPOS>MOLECULE
*****
 41 45 0 0 0
SMALL
GASTEIGER

@<TRIPOS>ATOM
      1 O          59.4046   89.2764    7.2443 O.3     1  UNL1       -0.4727
      2 C          59.6580   92.1147    3.7615 C.ar    1  UNL1        0.0481
      3 C          58.3329   91.8354    4.4066 C.ar    1  UNL1        0.0176
      4 C          58.2484   90.8893    5.5675 C.ar    1  UNL1        0.0382
      5 C          59.4891   90.2225    6.0834 C.ar    1  UNL1        0.1388
      6 C          60.8142   90.5019    5.4384 C.ar    1  UNL1        0.0382
      7 C          60.8986   91.4480    4.2774 C.ar    1  UNL1        0.0176
      8 N          59.9113   94.9531    0.2788 N.3     1  UNL1       -0.1543
      9 C          59.1147   93.6878    0.1587 C.3     1  UNL1        0.1169
     10 C          59.0302   92.7417    1.3196 C.3     1  UNL1        0.1099
     11 N          59.7424   93.0609    2.6006 N.pl3   1  UNL1       -0.3045
     12 C          60.5390   94.3261    2.7207 C.3     1  UNL1        0.1099
     13 C          60.6234   95.2723    1.5597 C.3     1  UNL1        0.1169
     14 S          59.9957   95.8992   -0.8822 S.O2    1  UNL1        0.0669
     15 O          58.9660   96.7802   -0.2391 O.2     1  UNL1       -0.1556
     16 O          61.0254   95.0182   -1.5252 O.2     1  UNL1       -0.1556
     17 C          60.0801   96.8453   -2.0431 C.3     1  UNL1        0.3179
     18 C          59.6851   95.8293   -4.8380 C.3     1  UNL1        0.1782
     19 S          59.8826   96.3373   -3.4405 S.O2    1  UNL1        0.0161
     20 O          61.2385   96.8542   -3.8201 O.2     1  UNL1       -0.1712
     21 O          58.5266   95.8204   -3.0609 O.2     1  UNL1       -0.1712
     22 C          59.7761   89.7430    8.6206 C.3     1  UNL1        0.2374
     23 C          60.4479   88.8016    9.5759 C.3     1  UNL1        0.1909
     24 C          60.2580   88.7707   11.0635 C.3     1  UNL1        0.1783
     25 O          61.1203   87.6759   11.6182 O.3     1  UNL1       -0.3267
     26 C          61.8431   87.0301   10.4735 C.3     1  UNL1        0.2296
     27 O          61.4276   87.7258    9.2112 O.3     1  UNL1       -0.3255
     28 C          62.4356   86.1614   11.5431 C.ar    1  UNL1        0.0409
     29 C          62.1942   84.6810   11.5262 C.ar    1  UNL1        0.0022
     30 C          62.7868   83.8123   12.5959 C.ar    1  UNL1        0.0113
     31 C          63.6207   84.4239   13.6824 C.ar    1  UNL1        0.0585
     32 CL         64.2133   83.5552   14.7521 Cl      1  UNL1       -0.0822
     33 C          63.8622   85.9043   13.6992 C.ar    1  UNL1        0.0226
     34 C          63.2696   86.7730   12.6296 C.ar    1  UNL1        0.0591
     35 CL         63.5110   88.2533   12.6464 Cl      1  UNL1       -0.0824
     36 C          62.6898   86.2027    9.5522 C.3     1  UNL1        0.1682
     37 N          62.0946   85.6255    8.3022 N.ar    1  UNL1       -0.3025
     38 C          62.8425   84.9009    7.2227 C.ar    1  UNL1        0.0982
     39 C          61.8571   84.4992    6.1655 C.ar    1  UNL1        0.1193
     40 N          60.5002   84.9757    6.5917 N.ar    1  UNL1       -0.2223
     41 C          60.6469   85.6718    7.9122 C.ar    1  UNL1        0.1788
@<TRIPOS>BOND
     1    18    19    1
     2    19    20    2
     3    19    21    2
     4    19    17    1
     5    17    14    1
     6    14    15    2
     7    14    16    2
     8    14     8    1
     9     8     9    1
    10     9    10    1
    11    10    11    1
    12    11     2    1
    13     2     3   ar
    14     3     4   ar
    15     4     5   ar
    16     5     1    1
    17     1    22    1
    18    23    22    1
    19    23    24    1
    20    24    25    1
    21    25    26    1
    22    26    36    1
    23    36    37    1
    24    37    38   ar
    25    38    39   ar
    26    39    40   ar
    27    40    41   ar
    28    26    28    1
    29    28    29   ar
    30    29    30   ar
    31    30    31   ar
    32    31    32    1
    33    31    33   ar
    34    33    34   ar
    35    34    35    1
    36    26    27    1
    37     5     6   ar
    38     6     7   ar
    39    11    12    1
    40    12    13    1
    41    13     8    1
    42     7     2   ar
    43    27    23    1
    44    41    37   ar
    45    34    28   ar
@<TRIPOS>MOLECULE
*****
 41 45 0 0 0
SMALL
GASTEIGER

@<TRIPOS>ATOM
      1 O          58.6400   90.5877    5.9096 O.3     1  UNL1       -0.4727
      2 C          60.7336   87.5259    8.4576 C.ar    1  UNL1        0.0481
      3 C          59.9997   87.0977    7.2215 C.ar    1  UNL1        0.0176
      4 C          59.3018   88.1183    6.3722 C.ar    1  UNL1        0.0382
      5 C          59.3379   89.5671    6.7590 C.ar    1  UNL1        0.1388
      6 C          60.0718   89.9953    7.9951 C.ar    1  UNL1        0.0382
      7 C          60.7696   88.9747    8.8444 C.ar    1  UNL1        0.0176
      8 N          62.8272   84.4642   11.0056 N.3     1  UNL1       -0.1543
      9 C          61.8295   85.3984   11.6235 C.3     1  UNL1        0.1169
     10 C          61.1316   86.4190   10.7741 C.3     1  UNL1        0.1099
     11 N          61.4315   86.5053    9.3070 N.pl3   1  UNL1       -0.3045
     12 C          62.4292   85.5711    8.6892 C.3     1  UNL1        0.1099
     13 C          63.1271   84.5505    9.5385 C.3     1  UNL1        0.1169
     14 S          63.5251   83.4436   11.8550 S.O2    1  UNL1        0.0669
     15 O          62.5484   83.6990   12.9644 O.2     1  UNL1       -0.1556
     16 O          64.5017   83.1881   10.7456 O.2     1  UNL1       -0.1556
     17 C          64.2229   82.4230   12.7043 C.3     1  UNL1        0.3179
     18 C          62.6852   80.1093   13.8369 C.3     1  UNL1        0.1782
     19 S          63.4541   81.2662   13.2705 S.O2    1  UNL1        0.0161
     20 O          63.8793   81.6607   14.6538 O.2     1  UNL1       -0.1712
     21 O          63.0289   80.8717   11.8873 O.2     1  UNL1       -0.1712
     22 C          59.3455   91.8554    5.5286 C.3     1  UNL1        0.2374
     23 C          59.3031   92.3400    4.1097 C.3     1  UNL1        0.1909
     24 C          58.3274   91.9029    3.0575 C.3     1  UNL1        0.1783
     25 O          58.6502   92.6396    1.7913 O.3     1  UNL1       -0.3267
     26 C          59.8254   93.5319    2.0610 C.3     1  UNL1        0.2296
     27 O          60.2290   93.3468    3.4938 O.3     1  UNL1       -0.3255
     28 C          59.6604   93.9205    0.6217 C.ar    1  UNL1        0.0409
     29 C          59.1283   95.2776    0.2676 C.ar    1  UNL1        0.0022
     30 C          58.9632   95.6663   -1.1718 C.ar    1  UNL1        0.0113
     31 C          59.3302   94.6980   -2.2570 C.ar    1  UNL1        0.0585
     32 CL         59.1652   95.0867   -3.6963 Cl      1  UNL1       -0.0822
     33 C          59.8623   93.3409   -1.9028 C.ar    1  UNL1        0.0226
     34 C          60.0274   92.9523   -0.4636 C.ar    1  UNL1        0.0591
     35 CL         60.5594   91.5953   -0.1094 Cl      1  UNL1       -0.0824
     36 C          60.9661   94.5055    2.0297 C.3     1  UNL1        0.1682
     37 N          62.3482   94.0311    1.6907 N.ar    1  UNL1       -0.3025
     38 C          63.3336   94.7423    0.8116 C.ar    1  UNL1        0.0982
     39 C          64.5818   93.9129    0.7489 C.ar    1  UNL1        0.1193
     40 N          64.3678   92.6890    1.5893 N.ar    1  UNL1       -0.2223
     41 C          62.9873   92.7620    2.1714 C.ar    1  UNL1        0.1788
@<TRIPOS>BOND
     1    18    19    1
     2    19    20    2
     3    19    21    2
     4    19    17    1
     5    17    14    1
     6    14    15    2
     7    14    16    2
     8    14     8    1
     9     8     9    1
    10     9    10    1
    11    10    11    1
    12    11     2    1
    13     2     3   ar
    14     3     4   ar
    15     4     5   ar
    16     5     1    1
    17     1    22    1
    18    23    22    1
    19    23    24    1
    20    24    25    1
    21    25    26    1
    22    26    36    1
    23    36    37    1
    24    37    38   ar
    25    38    39   ar
    26    39    40   ar
    27    40    41   ar
    28    26    28    1
    29    28    29   ar
    30    29    30   ar
    31    30    31   ar
    32    31    32    1
    33    31    33   ar
    34    33    34   ar
    35    34    35    1
    36    26    27    1
    37     5     6   ar
    38     6     7   ar
    39    11    12    1
    40    12    13    1
    41    13     8    1
    42     7     2   ar
    43    27    23    1
    44    41    37   ar
    45    34    28   ar
@<TRIPOS>MOLECULE
*****
 41 45 0 0 0
SMALL
GASTEIGER

@<TRIPOS>ATOM
      1 O          63.4733   87.7033   17.1602 O.3     1  UNL1       -0.4727
      2 C          63.1238   84.1175   14.4639 C.ar    1  UNL1        0.0481
      3 C          64.1264   85.1905   14.1587 C.ar    1  UNL1        0.0176
      4 C          64.2430   86.3858   15.0574 C.ar    1  UNL1        0.0382
      5 C          63.3568   86.5080   16.2614 C.ar    1  UNL1        0.1388
      6 C          62.3541   85.4350   16.5667 C.ar    1  UNL1        0.0382
      7 C          62.2376   84.2398   15.6679 C.ar    1  UNL1        0.0176
      8 N          62.7742   80.5318   11.7676 N.3     1  UNL1       -0.1543
      9 C          63.3110   81.8250   11.2298 C.3     1  UNL1        0.1169
     10 C          63.4275   83.0203   12.1286 C.3     1  UNL1        0.1099
     11 N          63.0072   82.9223   13.5651 N.pl3   1  UNL1       -0.3045
     12 C          62.4704   81.6290   14.1029 C.3     1  UNL1        0.1099
     13 C          62.3539   80.4337   13.2041 C.3     1  UNL1        0.1169
     14 S          62.6577   79.3365   10.8688 S.O2    1  UNL1        0.0669
     15 O          62.4726   78.4535   12.0671 O.2     1  UNL1       -0.1556
     16 O          62.8428   80.2195    9.6705 O.2     1  UNL1       -0.1556
     17 C          62.5412   78.1413    9.9700 C.3     1  UNL1        0.3179
     18 C          64.9071   76.3456    9.5479 C.3     1  UNL1        0.1782
     19 S          63.7241   77.2434    9.7590 S.O2    1  UNL1        0.0161
     20 O          64.3254   78.2545    8.8284 O.2     1  UNL1       -0.1712
     21 O          63.1227   76.2324   10.6896 O.2     1  UNL1       -0.1712
     22 C          62.8291   89.0005   16.7703 C.3     1  UNL1        0.2374
     23 C          63.4362   89.8441   15.6886 C.3     1  UNL1        0.1909
     24 C          64.0464   91.2025   15.8678 C.3     1  UNL1        0.1783
     25 O          64.5270   91.6753   14.5278 O.3     1  UNL1       -0.3267
     26 C          64.2138   90.6089   13.5204 C.3     1  UNL1        0.2296
     27 O          63.5396   89.4771   14.2378 O.3     1  UNL1       -0.3255
     28 C          64.8503   91.5593   12.5501 C.ar    1  UNL1        0.0409
     29 C          64.0964   92.0040   11.3319 C.ar    1  UNL1        0.0022
     30 C          64.7328   92.9544   10.3614 C.ar    1  UNL1        0.0113
     31 C          66.1231   93.4600   10.6092 C.ar    1  UNL1        0.0585
     32 CL         66.7596   94.4104    9.6388 Cl      1  UNL1       -0.0822
     33 C          66.8770   93.0153   11.8274 C.ar    1  UNL1        0.0226
     34 C          66.2406   92.0649   12.7978 C.ar    1  UNL1        0.0591
     35 CL         66.9944   91.6202   14.0159 Cl      1  UNL1       -0.0824
     36 C          64.0336   89.7412   12.3102 C.3     1  UNL1        0.1682
     37 N          62.6837   89.1708   11.9905 N.ar    1  UNL1       -0.3025
     38 C          61.3845   89.9202   12.0027 C.ar    1  UNL1        0.0982
     39 C          60.2938   88.9634   11.6222 C.ar    1  UNL1        0.1193
     40 N          60.9189   87.6225   11.3747 N.ar    1  UNL1       -0.2223
     41 C          62.3960   87.7507   11.6024 C.ar    1  UNL1        0.1788
@<TRIPOS>BOND
     1    18    19    1
     2    19    20    2
     3    19    21    2
     4    19    17    1
     5    17    14    1
     6    14    15    2
     7    14    16    2
     8    14     8    1
     9     8     9    1
    10     9    10    1
    11    10    11    1
    12    11     2    1
    13     2     3   ar
    14     3     4   ar
    15     4     5   ar
    16     5     1    1
    17     1    22    1
    18    23    22    1
    19    23    24    1
    20    24    25    1
    21    25    26    1
    22    26    36    1
    23    36    37    1
    24    37    38   ar
    25    38    39   ar
    26    39    40   ar
    27    40    41   ar
    28    26    28    1
    29    28    29   ar
    30    29    30   ar
    31    30    31   ar
    32    31    32    1
    33    31    33   ar
    34    33    34   ar
    35    34    35    1
    36    26    27    1
    37     5     6   ar
    38     6     7   ar
    39    11    12    1
    40    12    13    1
    41    13     8    1
    42     7     2   ar
    43    27    23    1
    44    41    37   ar
    45    34    28   ar
@<TRIPOS>MOLECULE
*****
 41 45 0 0 0
SMALL
GASTEIGER

@<TRIPOS>ATOM
      1 O          60.0302   87.2996   10.1710 O.3     1  UNL1       -0.4727
      2 C          59.9464   89.9734    6.5524 C.ar    1  UNL1        0.0481
      3 C          60.8193   90.3209    7.7217 C.ar    1  UNL1        0.0176
      4 C          60.8473   89.4296    8.9278 C.ar    1  UNL1        0.0382
      5 C          60.0023   88.1909    8.9648 C.ar    1  UNL1        0.1388
      6 C          59.1293   87.8434    7.7955 C.ar    1  UNL1        0.0382
      7 C          59.1014   88.7347    6.5894 C.ar    1  UNL1        0.0176
      8 N          59.8626   92.6472    2.9339 N.3     1  UNL1       -0.1543
      9 C          58.5901   92.3307    3.6621 C.3     1  UNL1        0.1169
     10 C          58.6180   91.4394    4.8683 C.3     1  UNL1        0.1099
     11 N          59.9185   90.8647    5.3462 N.pl3   1  UNL1       -0.3045
     12 C          61.1910   91.1813    4.6180 C.3     1  UNL1        0.1099
     13 C          61.1631   92.0725    3.4118 C.3     1  UNL1        0.1169
     14 S          59.8347   93.5385    1.7277 S.O2    1  UNL1        0.0669
     15 O          59.6433   92.3399    0.8464 O.2     1  UNL1       -0.1556
     16 O          60.0260   94.7371    2.6090 O.2     1  UNL1       -0.1556
     17 C          59.8067   94.4298    0.5215 C.3     1  UNL1        0.3179
     18 C          61.5926   93.8454   -1.8171 C.3     1  UNL1        0.1782
     19 S          60.6996   94.1376   -0.6478 S.O2    1  UNL1        0.0161
     20 O          59.5059   94.1240   -1.5559 O.2     1  UNL1       -0.1712
     21 O          61.8933   94.1512    0.2604 O.2     1  UNL1       -0.1712
     22 C          59.9683   87.8961   11.5458 C.3     1  UNL1        0.2374
     23 C          61.0499   88.8264   12.0091 C.3     1  UNL1        0.1909
     24 C          60.9784   90.3247   12.0221 C.3     1  UNL1        0.1783
     25 O          62.2772   90.8461   12.5618 O.3     1  UNL1       -0.3267
     26 C          63.1514   89.6701   12.8824 C.3     1  UNL1        0.2296
     27 O          62.3930   88.4219   12.5408 O.3     1  UNL1       -0.3255
     28 C          64.1357   90.7183   13.3096 C.ar    1  UNL1        0.0409
     29 C          64.5506   90.8156   14.7478 C.ar    1  UNL1        0.0022
     30 C          65.5349   91.8638   15.1751 C.ar    1  UNL1        0.0113
     31 C          66.1042   92.8146   14.1642 C.ar    1  UNL1        0.0585
     32 CL         67.0885   93.8628   14.5915 Cl      1  UNL1       -0.0822
     33 C          65.6892   92.7172   12.7260 C.ar    1  UNL1        0.0226
     34 C          64.7050   91.6691   12.2988 C.ar    1  UNL1        0.0591
     35 CL         64.2900   91.5717   10.8606 Cl      1  UNL1       -0.0824
     36 C          64.2314   88.7132   13.2923 C.3     1  UNL1        0.1682
     37 N          63.9743   87.7134   14.3805 N.ar    1  UNL1       -0.3025
     38 C          64.1992   86.2332   14.2890 C.ar    1  UNL1        0.0982
     39 C          63.8110   85.6233   15.6032 C.ar    1  UNL1        0.1193
     40 N          63.3462   86.7265   16.5070 N.ar    1  UNL1       -0.2223
     41 C          63.4471   88.0183   15.7513 C.ar    1  UNL1        0.1788
@<TRIPOS>BOND
     1    18    19    1
     2    19    20    2
     3    19    21    2
     4    19    17    1
     5    17    14    1
     6    14    15    2
     7    14    16    2
     8    14     8    1
     9     8     9    1
    10     9    10    1
    11    10    11    1
    12    11     2    1
    13     2     3   ar
    14     3     4   ar
    15     4     5   ar
    16     5     1    1
    17     1    22    1
    18    23    22    1
    19    23    24    1
    20    24    25    1
    21    25    26    1
    22    26    36    1
    23    36    37    1
    24    37    38   ar
    25    38    39   ar
    26    39    40   ar
    27    40    41   ar
    28    26    28    1
    29    28    29   ar
    30    29    30   ar
    31    30    31   ar
    32    31    32    1
    33    31    33   ar
    34    33    34   ar
    35    34    35    1
    36    26    27    1
    37     5     6   ar
    38     6     7   ar
    39    11    12    1
    40    12    13    1
    41    13     8    1
    42     7     2   ar
    43    27    23    1
    44    41    37   ar
    45    34    28   ar
