@<TRIPOS>MOLECULE
*****
 24 26 0 0 0
SMALL
GASTEIGER

@<TRIPOS>ATOM
      1 C          66.0447   92.7535   13.2285 C.3     1  UNL1        0.0952
      2 C          66.1396   93.2988   11.8344 C.3     1  UNL1        0.0245
      3 C          65.2397   92.7674   10.7583 C.3     1  UNL1        0.0067
      4 C          64.2449   91.6908   11.0764 C.3     1  UNL1        0.0263
      5 C          64.1500   91.1455   12.4705 C.ar    1  UNL1       -0.0216
      6 C          63.1552   90.0688   12.7886 C.ar    1  UNL1        0.0150
      7 C          63.0604   89.5234   14.1827 C.ar    1  UNL1        0.0985
      8 N          63.9602   90.0548   15.2588 N.ar    1  UNL1       -0.2426
      9 C          64.9550   91.1315   14.9407 C.ar    1  UNL1        0.0959
     10 C          65.0499   91.6768   13.5465 C.ar    1  UNL1        0.0107
     11 C          62.2554   89.5374   11.7126 C.ar    1  UNL1        0.0012
     12 C          62.5626   88.2226   11.0593 C.ar    1  UNL1        0.0007
     13 C          61.6628   87.6912    9.9833 C.ar    1  UNL1        0.0103
     14 C          60.4556   88.4747    9.5605 C.ar    1  UNL1        0.0684
     15 C          60.1482   89.7896   10.2137 C.ar    1  UNL1        0.0103
     16 C          61.0481   90.3210   11.2897 C.ar    1  UNL1        0.0007
     17 C          59.5557   87.9434    8.4844 C.1     1  UNL1        0.1004
     18 N          58.6558   87.4120    7.4084 N.1     1  UNL1       -0.1908
     19 C          68.3520   92.7797   14.4225 C.2     1  UNL1        0.2226
     20 O          68.8596   91.7431   13.4643 O.2     1  UNL1       -0.2751
     21 N          66.9446   93.2848   14.3045 N.am    1  UNL1       -0.3022
     22 H          66.6114   93.9651   14.9334 H       1  UNL1        0.1497
     23 C          68.9862   94.6590   16.1005 C.3     1  UNL1        0.0101
     24 C          69.2519   93.3110   15.4985 C.3     1  UNL1        0.0851
@<TRIPOS>BOND
     1    23    24    1
     2    24    19    1
     3    19    20    2
     4    19    21   am
     5    21     1    1
     6     1     2    1
     7     2     3    1
     8     3     4    1
     9     4     5    1
    10     5     6   ar
    11     6    11    1
    12    11    12   ar
    13    12    13   ar
    14    13    14   ar
    15    14    17    1
    16    17    18    3
    17    14    15   ar
    18    15    16   ar
    19     6     7   ar
    20     7     8   ar
    21     8     9   ar
    22     9    10   ar
    23    10     1    1
    24    10     5   ar
    25    16    11   ar
    26    21    22    1
@<TRIPOS>MOLECULE
*****
 24 26 0 0 0
SMALL
GASTEIGER

@<TRIPOS>ATOM
      1 C          66.1150   93.8846   11.8634 C.3     1  UNL1        0.0952
      2 C          66.7807   94.1878   13.1729 C.3     1  UNL1        0.0245
      3 C          66.5227   93.3150   14.3653 C.3     1  UNL1        0.0067
      4 C          65.5991   92.1390   14.2481 C.3     1  UNL1        0.0263
      5 C          64.9334   91.8357   12.9386 C.ar    1  UNL1       -0.0216
      6 C          64.0097   90.6596   12.8213 C.ar    1  UNL1        0.0150
      7 C          63.3440   90.3564   11.5118 C.ar    1  UNL1        0.0985
      8 N          63.6020   91.2292   10.3195 N.ar    1  UNL1       -0.2426
      9 C          64.5256   92.4053   10.4367 C.ar    1  UNL1        0.0959
     10 C          65.1914   92.7086   11.7462 C.ar    1  UNL1        0.0107
     11 C          63.7518   89.7868   14.0136 C.ar    1  UNL1        0.0012
     12 C          64.1447   88.3396   13.9827 C.ar    1  UNL1        0.0007
     13 C          63.8867   87.4667   15.1751 C.ar    1  UNL1        0.0103
     14 C          63.2359   88.0412   16.3983 C.ar    1  UNL1        0.0684
     15 C          62.8429   89.4885   16.4293 C.ar    1  UNL1        0.0103
     16 C          63.1009   90.3613   15.2369 C.ar    1  UNL1        0.0007
     17 C          62.9779   87.1683   17.5906 C.1     1  UNL1        0.1004
     18 N          62.7200   86.2955   18.7829 N.1     1  UNL1       -0.1908
     19 C          67.4749   94.4127    9.7136 C.2     1  UNL1        0.2226
     20 O          68.3191   93.1952    9.9485 O.2     1  UNL1       -0.2751
     21 N          66.3729   94.7574   10.6711 N.am    1  UNL1       -0.3022
     22 H          65.8189   95.5565   10.5169 H       1  UNL1        0.1497
     23 C          67.2740   96.7137    8.5239 C.3     1  UNL1        0.0101
     24 C          67.7329   95.2856    8.5213 C.3     1  UNL1        0.0851
@<TRIPOS>BOND
     1    23    24    1
     2    24    19    1
     3    19    20    2
     4    19    21   am
     5    21     1    1
     6     1     2    1
     7     2     3    1
     8     3     4    1
     9     4     5    1
    10     5     6   ar
    11     6    11    1
    12    11    12   ar
    13    12    13   ar
    14    13    14   ar
    15    14    17    1
    16    17    18    3
    17    14    15   ar
    18    15    16   ar
    19     6     7   ar
    20     7     8   ar
    21     8     9   ar
    22     9    10   ar
    23    10     1    1
    24    10     5   ar
    25    16    11   ar
    26    21    22    1
@<TRIPOS>MOLECULE
*****
 24 26 0 0 0
SMALL
GASTEIGER

@<TRIPOS>ATOM
      1 C          64.9382   91.6758   15.0298 C.3     1  UNL1        0.0952
      2 C          64.1197   90.7052   15.8284 C.3     1  UNL1        0.0245
      3 C          63.1117   89.8317   15.1423 C.3     1  UNL1        0.0067
      4 C          62.9221   89.9288   13.6575 C.3     1  UNL1        0.0263
      5 C          63.7406   90.8994   12.8589 C.ar    1  UNL1       -0.0216
      6 C          63.5511   90.9966   11.3740 C.ar    1  UNL1        0.0150
      7 C          64.3696   91.9672   10.5754 C.ar    1  UNL1        0.0985
      8 N          65.3777   92.8407   11.2615 N.ar    1  UNL1       -0.2426
      9 C          65.5672   92.7436   12.7463 C.ar    1  UNL1        0.0959
     10 C          64.7487   91.7729   13.5450 C.ar    1  UNL1        0.0107
     11 C          62.5430   90.1231   10.6879 C.ar    1  UNL1        0.0012
     12 C          62.9124   88.7268   10.2831 C.ar    1  UNL1        0.0007
     13 C          61.9043   87.8533    9.5970 C.ar    1  UNL1        0.0103
     14 C          60.5269   88.3761    9.3156 C.ar    1  UNL1        0.0684
     15 C          60.1574   89.7724    9.7204 C.ar    1  UNL1        0.0103
     16 C          61.1655   90.6459   10.4065 C.ar    1  UNL1        0.0007
     17 C          59.5188   87.5026    8.6295 C.1     1  UNL1        0.1004
     18 N          58.5107   86.6291    7.9433 N.1     1  UNL1       -0.1908
     19 C          67.4029   92.1946   15.6670 C.2     1  UNL1        0.2226
     20 O          67.8515   90.9664   14.9319 O.2     1  UNL1       -0.2751
     21 N          65.9463   92.5493   15.7159 N.am    1  UNL1       -0.3022
     22 H          65.6519   93.3554   16.1984 H       1  UNL1        0.1497
     23 C          68.8495   94.3523   15.7137 C.3     1  UNL1        0.0101
     24 C          68.4110   93.0681   16.3532 C.3     1  UNL1        0.0851
@<TRIPOS>BOND
     1    23    24    1
     2    24    19    1
     3    19    20    2
     4    19    21   am
     5    21     1    1
     6     1     2    1
     7     2     3    1
     8     3     4    1
     9     4     5    1
    10     5     6   ar
    11     6    11    1
    12    11    12   ar
    13    12    13   ar
    14    13    14   ar
    15    14    17    1
    16    17    18    3
    17    14    15   ar
    18    15    16   ar
    19     6     7   ar
    20     7     8   ar
    21     8     9   ar
    22     9    10   ar
    23    10     1    1
    24    10     5   ar
    25    16    11   ar
    26    21    22    1
@<TRIPOS>MOLECULE
*****
 24 26 0 0 0
SMALL
GASTEIGER

@<TRIPOS>ATOM
      1 C          64.1663   90.3038   13.2164 C.3     1  UNL1        0.0952
      2 C          64.7300   89.8321   14.5239 C.3     1  UNL1        0.0245
      3 C          64.6362   88.3836   14.9022 C.3     1  UNL1        0.0067
      4 C          63.9787   87.4068   13.9730 C.3     1  UNL1        0.0263
      5 C          63.4150   87.8785   12.6655 C.ar    1  UNL1       -0.0216
      6 C          62.7574   86.9017   11.7362 C.ar    1  UNL1        0.0150
      7 C          62.1936   87.3733   10.4287 C.ar    1  UNL1        0.0985
      8 N          62.2874   88.8218   10.0504 N.ar    1  UNL1       -0.2426
      9 C          62.9450   89.7986   10.9796 C.ar    1  UNL1        0.0959
     10 C          63.5087   89.3270   12.2872 C.ar    1  UNL1        0.0107
     11 C          62.6636   85.4532   12.1145 C.ar    1  UNL1        0.0012
     12 C          62.4704   85.0640   13.5502 C.ar    1  UNL1        0.0007
     13 C          62.3767   83.6155   13.9285 C.ar    1  UNL1        0.0103
     14 C          62.4760   82.5562   12.8712 C.ar    1  UNL1        0.0684
     15 C          62.6692   82.9454   11.4354 C.ar    1  UNL1        0.0103
     16 C          62.7630   84.3939   11.0571 C.ar    1  UNL1        0.0007
     17 C          62.3822   81.1078   13.2495 C.1     1  UNL1        0.1004
     18 N          62.2884   79.6593   13.6278 N.1     1  UNL1       -0.1908
     19 C          65.6031   92.4054   12.6980 C.2     1  UNL1        0.2226
     20 O          66.8524   91.6100   12.9362 O.2     1  UNL1       -0.2751
     21 N          64.2600   91.7522   12.8381 N.am    1  UNL1       -0.3022
     22 H          63.4401   92.2742   12.6817 H       1  UNL1        0.1497
     23 C          65.7546   94.2491   10.8738 C.3     1  UNL1        0.0101
     24 C          65.6969   93.8538   12.3197 C.3     1  UNL1        0.0851
@<TRIPOS>BOND
     1    23    24    1
     2    24    19    1
     3    19    20    2
     4    19    21   am
     5    21     1    1
     6     1     2    1
     7     2     3    1
     8     3     4    1
     9     4     5    1
    10     5     6   ar
    11     6    11    1
    12    11    12   ar
    13    12    13   ar
    14    13    14   ar
    15    14    17    1
    16    17    18    3
    17    14    15   ar
    18    15    16   ar
    19     6     7   ar
    20     7     8   ar
    21     8     9   ar
    22     9    10   ar
    23    10     1    1
    24    10     5   ar
    25    16    11   ar
    26    21    22    1
@<TRIPOS>MOLECULE
*****
 24 26 0 0 0
SMALL
GASTEIGER

@<TRIPOS>ATOM
      1 C          65.5487   90.8103   14.0775 C.3     1  UNL1        0.0952
      2 C          65.0618   89.5979   14.8144 C.3     1  UNL1        0.0245
      3 C          64.0045   88.7249   14.2061 C.3     1  UNL1        0.0067
      4 C          63.4341   89.0642   12.8610 C.3     1  UNL1        0.0263
      5 C          63.9210   90.2766   12.1241 C.ar    1  UNL1       -0.0216
      6 C          63.3506   90.6160   10.7789 C.ar    1  UNL1        0.0150
      7 C          63.8374   91.8283   10.0420 C.ar    1  UNL1        0.0985
      8 N          64.8947   92.7014   10.6502 N.ar    1  UNL1       -0.2426
      9 C          65.4651   92.3620   11.9954 C.ar    1  UNL1        0.0959
     10 C          64.9783   91.1496   12.7323 C.ar    1  UNL1        0.0107
     11 C          62.2933   89.7429   10.1707 C.ar    1  UNL1        0.0012
     12 C          60.9259   90.2977    9.9017 C.ar    1  UNL1        0.0007
     13 C          59.8686   89.4247    9.2935 C.ar    1  UNL1        0.0103
     14 C          60.1787   87.9969    8.9542 C.ar    1  UNL1        0.0684
     15 C          61.5462   87.4420    9.2232 C.ar    1  UNL1        0.0103
     16 C          62.6035   88.3151    9.8314 C.ar    1  UNL1        0.0007
     17 C          59.1214   87.1238    8.3460 C.1     1  UNL1        0.1004
     18 N          58.0641   86.2508    7.7378 N.1     1  UNL1       -0.1908
     19 C          66.2927   92.5046   15.9011 C.2     1  UNL1        0.2226
     20 O          64.9220   92.4530   16.5083 O.2     1  UNL1       -0.2751
     21 N          66.6060   91.6833   14.6857 N.am    1  UNL1       -0.3022
     22 H          67.5056   91.7173   14.2872 H       1  UNL1        0.1497
     23 C          68.7871   93.1977   16.1190 C.3     1  UNL1        0.0101
     24 C          67.3499   93.3777   16.5093 C.3     1  UNL1        0.0851
@<TRIPOS>BOND
     1    23    24    1
     2    24    19    1
     3    19    20    2
     4    19    21   am
     5    21     1    1
     6     1     2    1
     7     2     3    1
     8     3     4    1
     9     4     5    1
    10     5     6   ar
    11     6    11    1
    12    11    12   ar
    13    12    13   ar
    14    13    14   ar
    15    14    17    1
    16    17    18    3
    17    14    15   ar
    18    15    16   ar
    19     6     7   ar
    20     7     8   ar
    21     8     9   ar
    22     9    10   ar
    23    10     1    1
    24    10     5   ar
    25    16    11   ar
    26    21    22    1
@<TRIPOS>MOLECULE
*****
 24 26 0 0 0
SMALL
GASTEIGER

@<TRIPOS>ATOM
      1 C          63.5477   90.4524   13.0171 C.3     1  UNL1        0.0952
      2 C          63.2677   91.3472   11.8462 C.3     1  UNL1        0.0245
      3 C          62.8673   90.7541   10.5279 C.3     1  UNL1        0.0067
      4 C          62.7468   89.2663   10.3805 C.3     1  UNL1        0.0263
      5 C          63.0267   88.3715   11.5513 C.ar    1  UNL1       -0.0216
      6 C          62.9063   86.8836   11.4039 C.ar    1  UNL1        0.0150
      7 C          63.1862   85.9888   12.5747 C.ar    1  UNL1        0.0985
      8 N          63.5867   86.5819   13.8930 N.ar    1  UNL1       -0.2426
      9 C          63.7072   88.0697   14.0405 C.ar    1  UNL1        0.0959
     10 C          63.4272   88.9646   12.8696 C.ar    1  UNL1        0.0107
     11 C          62.5058   86.2906   10.0856 C.ar    1  UNL1        0.0012
     12 C          61.1654   86.6127    9.4945 C.ar    1  UNL1        0.0007
     13 C          60.7649   86.0197    8.1762 C.ar    1  UNL1        0.0103
     14 C          61.7049   85.1045    7.4490 C.ar    1  UNL1        0.0684
     15 C          63.0454   84.7823    8.0401 C.ar    1  UNL1        0.0103
     16 C          63.4458   85.3753    9.3584 C.ar    1  UNL1        0.0007
     17 C          61.3044   84.5114    6.1307 C.1     1  UNL1        0.1004
     18 N          60.9040   83.9184    4.8124 N.1     1  UNL1       -0.1908
     19 C          65.3333   91.5895   14.5233 C.2     1  UNL1        0.2226
     20 O          66.3180   91.5406   13.3928 O.2     1  UNL1       -0.2751
     21 N          63.9481   91.0454   14.3354 N.am    1  UNL1       -0.3022
     22 H          63.3018   91.0776   15.0774 H       1  UNL1        0.1497
     23 C          67.1509   92.6188   16.0682 C.3     1  UNL1        0.0101
     24 C          65.7337   92.1826   15.8416 C.3     1  UNL1        0.0851
@<TRIPOS>BOND
     1    23    24    1
     2    24    19    1
     3    19    20    2
     4    19    21   am
     5    21     1    1
     6     1     2    1
     7     2     3    1
     8     3     4    1
     9     4     5    1
    10     5     6   ar
    11     6    11    1
    12    11    12   ar
    13    12    13   ar
    14    13    14   ar
    15    14    17    1
    16    17    18    3
    17    14    15   ar
    18    15    16   ar
    19     6     7   ar
    20     7     8   ar
    21     8     9   ar
    22     9    10   ar
    23    10     1    1
    24    10     5   ar
    25    16    11   ar
    26    21    22    1
@<TRIPOS>MOLECULE
*****
 24 26 0 0 0
SMALL
GASTEIGER

@<TRIPOS>ATOM
      1 C          65.6633   93.1428   12.7310 C.3     1  UNL1        0.0952
      2 C          66.4717   92.8778   13.9663 C.3     1  UNL1        0.0245
      3 C          66.3897   91.5422   14.6442 C.3     1  UNL1        0.0067
      4 C          65.4993   90.4716   14.0866 C.3     1  UNL1        0.0263
      5 C          64.6909   90.7366   12.8513 C.ar    1  UNL1       -0.0216
      6 C          63.8004   89.6660   12.2936 C.ar    1  UNL1        0.0150
      7 C          62.9920   89.9310   11.0583 C.ar    1  UNL1        0.0985
      8 N          63.0740   91.2666   10.3804 N.ar    1  UNL1       -0.2426
      9 C          63.9644   92.3372   10.9380 C.ar    1  UNL1        0.0959
     10 C          64.7729   92.0722   12.1734 C.ar    1  UNL1        0.0107
     11 C          63.7183   88.3304   12.9715 C.ar    1  UNL1        0.0012
     12 C          63.1404   87.1537   12.2427 C.ar    1  UNL1        0.0007
     13 C          63.0584   85.8181   12.9205 C.ar    1  UNL1        0.0103
     14 C          63.5543   85.6592   14.3271 C.ar    1  UNL1        0.0684
     15 C          64.1323   86.8360   15.0561 C.ar    1  UNL1        0.0103
     16 C          64.2143   88.1716   14.3782 C.ar    1  UNL1        0.0007
     17 C          63.4723   84.3236   15.0050 C.1     1  UNL1        0.1004
     18 N          63.3903   82.9880   15.6828 N.1     1  UNL1       -0.1908
     19 C          66.6494   94.6652   10.8709 C.2     1  UNL1        0.2226
     20 O          67.4715   93.5164   10.3665 O.2     1  UNL1       -0.2751
     21 N          65.7453   94.4784   12.0531 N.am    1  UNL1       -0.3022
     22 H          65.2057   95.2324   12.3842 H       1  UNL1        0.1497
     23 C          67.5022   96.1469    8.9145 C.3     1  UNL1        0.0101
     24 C          66.7314   96.0008   10.1931 C.3     1  UNL1        0.0851
@<TRIPOS>BOND
     1    23    24    1
     2    24    19    1
     3    19    20    2
     4    19    21   am
     5    21     1    1
     6     1     2    1
     7     2     3    1
     8     3     4    1
     9     4     5    1
    10     5     6   ar
    11     6    11    1
    12    11    12   ar
    13    12    13   ar
    14    13    14   ar
    15    14    17    1
    16    17    18    3
    17    14    15   ar
    18    15    16   ar
    19     6     7   ar
    20     7     8   ar
    21     8     9   ar
    22     9    10   ar
    23    10     1    1
    24    10     5   ar
    25    16    11   ar
    26    21    22    1
@<TRIPOS>MOLECULE
*****
 24 26 0 0 0
SMALL
GASTEIGER

@<TRIPOS>ATOM
      1 C          62.1098   89.1949   10.7919 C.3     1  UNL1        0.0952
      2 C          62.2498   90.4942   10.0555 C.3     1  UNL1        0.0245
      3 C          63.1773   91.5534   10.5729 C.3     1  UNL1        0.0067
      4 C          63.9649   91.3134   11.8266 C.3     1  UNL1        0.0263
      5 C          63.8250   90.0141   12.5630 C.ar    1  UNL1       -0.0216
      6 C          64.6127   89.7740   13.8169 C.ar    1  UNL1        0.0150
      7 C          64.4728   88.4748   14.5532 C.ar    1  UNL1        0.0985
      8 N          63.5452   87.4155   14.0359 N.ar    1  UNL1       -0.2426
      9 C          62.7576   87.6556   12.7821 C.ar    1  UNL1        0.0959
     10 C          62.8975   88.9549   12.0456 C.ar    1  UNL1        0.0107
     11 C          65.5402   90.8333   14.3342 C.ar    1  UNL1        0.0012
     12 C          66.8209   91.1273   13.6108 C.ar    1  UNL1        0.0007
     13 C          67.7484   92.1865   14.1282 C.ar    1  UNL1        0.0103
     14 C          67.3953   92.9517   15.3690 C.ar    1  UNL1        0.0684
     15 C          66.1146   92.6577   16.0925 C.ar    1  UNL1        0.0103
     16 C          65.1871   91.5985   15.5751 C.ar    1  UNL1        0.0007
     17 C          68.3229   94.0109   15.8864 C.1     1  UNL1        0.1004
     18 N          69.2504   95.0702   16.4037 N.1     1  UNL1       -0.1908
     19 C          61.7009   87.0665    9.3591 C.2     1  UNL1        0.2226
     20 O          63.1471   87.0566    8.9611 O.2     1  UNL1       -0.2751
     21 N          61.1823   88.1357   10.2745 N.am    1  UNL1       -0.3022
     22 H          60.2331   88.1422   10.5357 H       1  UNL1        0.1497
     23 C          59.7321   86.3562    7.8198 C.3     1  UNL1        0.0101
     24 C          60.7733   86.0073    8.8418 C.3     1  UNL1        0.0851
@<TRIPOS>BOND
     1    23    24    1
     2    24    19    1
     3    19    20    2
     4    19    21   am
     5    21     1    1
     6     1     2    1
     7     2     3    1
     8     3     4    1
     9     4     5    1
    10     5     6   ar
    11     6    11    1
    12    11    12   ar
    13    12    13   ar
    14    13    14   ar
    15    14    17    1
    16    17    18    3
    17    14    15   ar
    18    15    16   ar
    19     6     7   ar
    20     7     8   ar
    21     8     9   ar
    22     9    10   ar
    23    10     1    1
    24    10     5   ar
    25    16    11   ar
    26    21    22    1
@<TRIPOS>MOLECULE
*****
 24 26 0 0 0
SMALL
GASTEIGER

@<TRIPOS>ATOM
      1 C          64.3316   87.3157   14.4167 C.3     1  UNL1        0.0952
      2 C          65.0945   86.3980   15.3253 C.3     1  UNL1        0.0245
      3 C          65.1104   84.9219   15.0591 C.3     1  UNL1        0.0067
      4 C          64.3633   84.3635   13.8843 C.3     1  UNL1        0.0263
      5 C          63.6004   85.2813   12.9758 C.ar    1  UNL1       -0.0216
      6 C          62.8533   84.7230   11.8009 C.ar    1  UNL1        0.0150
      7 C          62.0903   85.6408   10.8924 C.ar    1  UNL1        0.0985
      8 N          62.0744   87.1169   11.1586 N.ar    1  UNL1       -0.2426
      9 C          62.8215   87.6752   12.3333 C.ar    1  UNL1        0.0959
     10 C          63.5845   86.7574   13.2420 C.ar    1  UNL1        0.0107
     11 C          62.8692   83.2469   11.5347 C.ar    1  UNL1        0.0012
     12 C          63.4764   82.7196   10.2686 C.ar    1  UNL1        0.0007
     13 C          63.4923   81.2435   10.0024 C.ar    1  UNL1        0.0103
     14 C          62.9009   80.2947   11.0024 C.ar    1  UNL1        0.0684
     15 C          62.2936   80.8219   12.2686 C.ar    1  UNL1        0.0103
     16 C          62.2778   82.2980   12.5348 C.ar    1  UNL1        0.0007
     17 C          62.9168   78.8186   10.7362 C.1     1  UNL1        0.1004
     18 N          62.9327   77.3425   10.4700 N.1     1  UNL1       -0.1908
     19 C          63.5904   89.3302   15.8804 C.2     1  UNL1        0.2226
     20 O          62.8809   88.3925   16.8118 O.2     1  UNL1       -0.2751
     21 N          64.3157   88.7919   14.6829 N.am    1  UNL1       -0.3022
     22 H          64.7813   89.4073   14.0717 H       1  UNL1        0.1497
     23 C          64.7494   91.6520   15.7535 C.3     1  UNL1        0.0101
     24 C          63.5745   90.8063   16.1466 C.3     1  UNL1        0.0851
@<TRIPOS>BOND
     1    23    24    1
     2    24    19    1
     3    19    20    2
     4    19    21   am
     5    21     1    1
     6     1     2    1
     7     2     3    1
     8     3     4    1
     9     4     5    1
    10     5     6   ar
    11     6    11    1
    12    11    12   ar
    13    12    13   ar
    14    13    14   ar
    15    14    17    1
    16    17    18    3
    17    14    15   ar
    18    15    16   ar
    19     6     7   ar
    20     7     8   ar
    21     8     9   ar
    22     9    10   ar
    23    10     1    1
    24    10     5   ar
    25    16    11   ar
    26    21    22    1
