@<TRIPOS>MOLECULE
*****
 38 43 0 0 0
SMALL
GASTEIGER

@<TRIPOS>ATOM
      1 C          60.5143   88.3611    9.3366 C.ar    1  UNL1        0.0140
      2 C          61.4167   89.2084   10.1837 C.ar    1  UNL1        0.0011
      3 C          62.3818   88.5605   11.1317 C.ar    1  UNL1        0.0000
      4 C          62.4445   87.0651   11.2325 C.ar    1  UNL1        0.0000
      5 C          63.4096   86.4172   12.1805 C.ar    1  UNL1        0.0000
      6 C          63.4722   84.9219   12.2813 C.ar    1  UNL1       -0.0000
      7 C          62.5698   84.0746   11.4341 C.ar    1  UNL1       -0.0000
      8 C          61.6047   84.7226   10.4862 C.ar    1  UNL1        0.0000
      9 C          61.5420   86.2178   10.3854 C.ar    1  UNL1        0.0000
     10 C          60.5769   86.8659    9.4374 C.ar    1  UNL1        0.0011
     11 C          63.2843   89.4078   11.9788 C.ar    1  UNL1       -0.0000
     12 C          63.7344   88.9136   13.3216 C.ar    1  UNL1       -0.0003
     13 C          64.6368   89.7609   14.1687 C.ar    1  UNL1       -0.0042
     14 C          65.0892   91.1024   13.6731 C.ar    1  UNL1       -0.0209
     15 C          64.6391   91.5966   12.3302 C.ar    1  UNL1       -0.0042
     16 C          63.7366   90.7493   11.4831 C.ar    1  UNL1       -0.0003
     17 C          65.9916   91.9497   14.5202 C.3     1  UNL1        0.0408
     18 C          65.7408   92.3560   15.9422 C.3     1  UNL1        0.0151
     19 C          66.8975   93.1969   16.3950 C.3     1  UNL1        0.0785
     20 C          67.8633   93.3102   15.2528 C.3     1  UNL1        0.0290
     21 C          67.3034   92.5394   14.0942 C.3     1  UNL1        0.0760
     22 N          68.4601   93.3803   14.5470 N.am    1  UNL1       -0.3056
     23 C          68.2092   93.7866   15.9689 C.2     1  UNL1        0.2220
     24 O          69.1117   94.6339   16.8160 O.2     1  UNL1       -0.2751
     25 H          69.2460   93.6229   14.0058 H       1  UNL1        0.1494
     26 C          62.6325   82.5792   11.5350 C.ar    1  UNL1       -0.0000
     27 C          63.0699   81.7655   10.3533 C.ar    1  UNL1       -0.0001
     28 C          63.1326   80.2702   10.4542 C.ar    1  UNL1        0.0039
     29 C          62.7578   79.5886   11.7368 C.ar    1  UNL1        0.0714
     30 C          62.3204   80.4025   12.9185 C.ar    1  UNL1        0.0039
     31 C          62.2577   81.8977   12.8176 C.ar    1  UNL1       -0.0001
     32 C          62.8205   78.0934   11.8376 C.3     1  UNL1        0.4186
     33 F          62.8831   76.5981   11.9385 F       1  UNL1       -0.1659
     34 F          62.7581   78.1917   13.3331 F       1  UNL1       -0.1659
     35 F          62.8828   77.9951   10.3422 F       1  UNL1       -0.1659
     36 O          59.3830   90.4999    8.3900 O.co2   1  UNL1       -0.5446
     37 C          59.5491   89.0092    8.3886 C.2     1  UNL1        0.0729
     38 O          58.7501   88.1664    7.4392 O.co2   1  UNL1       -0.5446
@<TRIPOS>UNITY_ATOM_ATTR
36 1
charge -1
@<TRIPOS>BOND
     1    36    37   ar
     2    37    38   ar
     3    37     1    1
     4     1     2   ar
     5     2     3   ar
     6     3    11    1
     7    11    12   ar
     8    12    13   ar
     9    13    14   ar
    10    17    14    1
    11    17    18    1
    12    19    18    1
    13    19    20    1
    14    20    21    1
    15    21    22    1
    16    22    23   am
    17    23    24    2
    18    14    15   ar
    19    15    16   ar
    20     3     4   ar
    21     4     5   ar
    22     5     6   ar
    23     6     7   ar
    24     7    26    1
    25    26    27   ar
    26    27    28   ar
    27    28    29   ar
    28    29    32    1
    29    32    33    1
    30    32    34    1
    31    32    35    1
    32    29    30   ar
    33    30    31   ar
    34     7     8   ar
    35     8     9   ar
    36     9    10   ar
    37    10     1   ar
    38    16    11   ar
    39     9     4   ar
    40    21    17    1
    41    31    26   ar
    42    23    19    1
    43    22    25    1
@<TRIPOS>MOLECULE
*****
 38 43 0 0 0
SMALL
GASTEIGER

@<TRIPOS>ATOM
      1 C          57.0498   90.9915    5.3405 C.ar    1  UNL1        0.0140
      2 C          57.7321   90.0372    6.2753 C.ar    1  UNL1        0.0011
      3 C          59.2198   89.8571    6.2091 C.ar    1  UNL1        0.0000
      4 C          60.0252   90.6313    5.2081 C.ar    1  UNL1        0.0000
      5 C          61.5129   90.4512    5.1419 C.ar    1  UNL1        0.0000
      6 C          62.3182   91.2255    4.1410 C.ar    1  UNL1       -0.0000
      7 C          61.6359   92.1798    3.2062 C.ar    1  UNL1       -0.0000
      8 C          60.1483   92.3599    3.2724 C.ar    1  UNL1        0.0000
      9 C          59.3429   91.5857    4.2733 C.ar    1  UNL1        0.0000
     10 C          57.8552   91.7657    4.3396 C.ar    1  UNL1        0.0011
     11 C          59.9021   88.9028    7.1438 C.ar    1  UNL1       -0.0000
     12 C          59.9487   87.4391    6.8190 C.ar    1  UNL1       -0.0003
     13 C          60.6310   86.4848    7.7538 C.ar    1  UNL1       -0.0042
     14 C          61.2667   86.9941    9.0133 C.ar    1  UNL1       -0.0209
     15 C          61.2201   88.4579    9.3382 C.ar    1  UNL1       -0.0042
     16 C          60.5378   89.4122    8.4034 C.ar    1  UNL1       -0.0003
     17 C          61.9489   86.0398    9.9481 C.3     1  UNL1        0.0408
     18 C          62.8523   84.9103    9.5504 C.3     1  UNL1        0.0151
     19 C          63.3093   84.2199   10.8012 C.3     1  UNL1        0.0785
     20 C          62.6884   84.9227   11.9719 C.3     1  UNL1        0.0290
     21 C          61.8477   86.0474   11.4446 C.3     1  UNL1        0.0760
     22 N          62.3047   85.3570   12.6954 N.am    1  UNL1       -0.3056
     23 C          63.2080   84.2275   12.2977 C.2     1  UNL1        0.2220
     24 O          63.8903   83.2732   13.2324 O.2     1  UNL1       -0.2751
     25 H          62.0555   85.6021   13.6157 H       1  UNL1        0.1494
     26 C          62.4414   92.9540    2.2052 C.ar    1  UNL1       -0.0000
     27 C          63.8751   92.5916    1.9546 C.ar    1  UNL1       -0.0001
     28 C          64.6806   93.3658    0.9536 C.ar    1  UNL1        0.0039
     29 C          64.0522   94.5025    0.2033 C.ar    1  UNL1        0.0714
     30 C          62.6183   94.8650    0.4540 C.ar    1  UNL1        0.0039
     31 C          61.8130   94.0907    1.4549 C.ar    1  UNL1       -0.0001
     32 C          64.8575   95.2767   -0.7976 C.3     1  UNL1        0.4186
     33 F          65.6629   96.0510   -1.7986 F       1  UNL1       -0.1659
     34 F          64.2193   94.5008   -1.9114 F       1  UNL1       -0.1659
     35 F          65.4957   96.0527    0.3161 F       1  UNL1       -0.1659
     36 O          54.7480   90.3436    6.3562 O.co2   1  UNL1       -0.5446
     37 C          55.5621   91.1716    5.4067 C.2     1  UNL1        0.0729
     38 O          54.8886   92.1797    4.5235 O.co2   1  UNL1       -0.5446
@<TRIPOS>UNITY_ATOM_ATTR
36 1
charge -1
@<TRIPOS>BOND
     1    36    37   ar
     2    37    38   ar
     3    37     1    1
     4     1     2   ar
     5     2     3   ar
     6     3    11    1
     7    11    12   ar
     8    12    13   ar
     9    13    14   ar
    10    17    14    1
    11    17    18    1
    12    19    18    1
    13    19    20    1
    14    20    21    1
    15    21    22    1
    16    22    23   am
    17    23    24    2
    18    14    15   ar
    19    15    16   ar
    20     3     4   ar
    21     4     5   ar
    22     5     6   ar
    23     6     7   ar
    24     7    26    1
    25    26    27   ar
    26    27    28   ar
    27    28    29   ar
    28    29    32    1
    29    32    33    1
    30    32    34    1
    31    32    35    1
    32    29    30   ar
    33    30    31   ar
    34     7     8   ar
    35     8     9   ar
    36     9    10   ar
    37    10     1   ar
    38    16    11   ar
    39     9     4   ar
    40    21    17    1
    41    31    26   ar
    42    23    19    1
    43    22    25    1
@<TRIPOS>MOLECULE
*****
 38 43 0 0 0
SMALL
GASTEIGER

@<TRIPOS>ATOM
      1 C          63.2981   95.3945   -0.6732 C.ar    1  UNL1        0.0140
      2 C          62.1438   95.6483   -1.5968 C.ar    1  UNL1        0.0011
      3 C          60.7892   95.0901   -1.2754 C.ar    1  UNL1        0.0000
      4 C          60.5889   94.2780   -0.0302 C.ar    1  UNL1        0.0000
      5 C          59.2342   93.7198    0.2913 C.ar    1  UNL1        0.0000
      6 C          59.0339   92.9078    1.5364 C.ar    1  UNL1       -0.0000
      7 C          60.1882   92.6540    2.4601 C.ar    1  UNL1       -0.0000
      8 C          61.5428   93.2122    2.1386 C.ar    1  UNL1        0.0000
      9 C          61.7431   94.0242    0.8935 C.ar    1  UNL1        0.0000
     10 C          63.0978   94.5825    0.5720 C.ar    1  UNL1        0.0011
     11 C          59.6349   95.3439   -2.1990 C.ar    1  UNL1       -0.0000
     12 C          58.7631   96.5476   -1.9967 C.ar    1  UNL1       -0.0003
     13 C          57.6088   96.8015   -2.9204 C.ar    1  UNL1       -0.0042
     14 C          57.3263   95.8516   -4.0464 C.ar    1  UNL1       -0.0209
     15 C          58.1982   94.6478   -4.2488 C.ar    1  UNL1       -0.0042
     16 C          59.3525   94.3940   -3.3251 C.ar    1  UNL1       -0.0003
     17 C          56.1720   96.1054   -4.9701 C.3     1  UNL1        0.0408
     18 C          56.2407   96.8037   -6.2959 C.3     1  UNL1        0.0151
     19 C          54.8575   96.8353   -6.8753 C.3     1  UNL1        0.0785
     20 C          53.9340   96.1566   -5.9077 C.3     1  UNL1        0.0290
     21 C          54.7464   95.7055   -4.7302 C.3     1  UNL1        0.0760
     22 N          53.3632   95.7372   -5.3096 N.am    1  UNL1       -0.3056
     23 C          53.4319   96.4355   -6.6354 C.2     1  UNL1        0.2220
     24 O          52.2776   96.6893   -7.5590 O.2     1  UNL1       -0.2751
     25 H          52.5526   95.3651   -4.8930 H       1  UNL1        0.1494
     26 C          59.9879   91.8419    3.7053 C.ar    1  UNL1       -0.0000
     27 C          61.1612   91.1827    4.3677 C.ar    1  UNL1       -0.0001
     28 C          60.9608   90.3706    5.6129 C.ar    1  UNL1        0.0039
     29 C          59.5871   90.2177    6.1956 C.ar    1  UNL1        0.0714
     30 C          58.4138   90.8770    5.5332 C.ar    1  UNL1        0.0039
     31 C          58.6142   91.6890    4.2881 C.ar    1  UNL1       -0.0001
     32 C          59.3867   89.4057    7.4408 C.3     1  UNL1        0.4186
     33 F          59.1863   88.5937    8.6859 F       1  UNL1       -0.1659
     34 F          60.5590   90.0919    8.0770 F       1  UNL1       -0.1659
     35 F          58.2144   88.7195    6.8046 F       1  UNL1       -0.1659
     36 O          64.8402   96.8144   -2.2081 O.co2   1  UNL1       -0.5446
     37 C          64.6528   95.9528   -0.9947 C.2     1  UNL1        0.0729
     38 O          65.8200   95.6494   -0.1027 O.co2   1  UNL1       -0.5446
@<TRIPOS>UNITY_ATOM_ATTR
36 1
charge -1
@<TRIPOS>BOND
     1    36    37   ar
     2    37    38   ar
     3    37     1    1
     4     1     2   ar
     5     2     3   ar
     6     3    11    1
     7    11    12   ar
     8    12    13   ar
     9    13    14   ar
    10    17    14    1
    11    17    18    1
    12    19    18    1
    13    19    20    1
    14    20    21    1
    15    21    22    1
    16    22    23   am
    17    23    24    2
    18    14    15   ar
    19    15    16   ar
    20     3     4   ar
    21     4     5   ar
    22     5     6   ar
    23     6     7   ar
    24     7    26    1
    25    26    27   ar
    26    27    28   ar
    27    28    29   ar
    28    29    32    1
    29    32    33    1
    30    32    34    1
    31    32    35    1
    32    29    30   ar
    33    30    31   ar
    34     7     8   ar
    35     8     9   ar
    36     9    10   ar
    37    10     1   ar
    38    16    11   ar
    39     9     4   ar
    40    21    17    1
    41    31    26   ar
    42    23    19    1
    43    22    25    1
@<TRIPOS>MOLECULE
*****
 38 43 0 0 0
SMALL
GASTEIGER

@<TRIPOS>ATOM
      1 C          63.2615   93.3427    1.1199 C.ar    1  UNL1        0.0140
      2 C          62.0302   93.8380    0.4209 C.ar    1  UNL1        0.0011
      3 C          60.6743   93.5422    0.9902 C.ar    1  UNL1        0.0000
      4 C          60.5497   92.7512    2.2586 C.ar    1  UNL1        0.0000
      5 C          59.1939   92.4554    2.8280 C.ar    1  UNL1        0.0000
      6 C          59.0693   91.6644    4.0963 C.ar    1  UNL1       -0.0000
      7 C          60.3006   91.1691    4.7953 C.ar    1  UNL1       -0.0000
      8 C          61.6565   91.4649    4.2260 C.ar    1  UNL1        0.0000
      9 C          61.7810   92.2559    2.9577 C.ar    1  UNL1        0.0000
     10 C          63.1369   92.5516    2.3883 C.ar    1  UNL1        0.0011
     11 C          59.4430   94.0375    0.2912 C.ar    1  UNL1       -0.0000
     12 C          58.4499   93.0591   -0.2620 C.ar    1  UNL1       -0.0003
     13 C          57.2186   93.5544   -0.9610 C.ar    1  UNL1       -0.0042
     14 C          56.9805   95.0281   -1.1068 C.ar    1  UNL1       -0.0209
     15 C          57.9737   96.0067   -0.5535 C.ar    1  UNL1       -0.0042
     16 C          59.2050   95.5114    0.1455 C.ar    1  UNL1       -0.0003
     17 C          55.7492   95.5234   -1.8058 C.3     1  UNL1        0.0408
     18 C          55.7176   96.4404   -2.9924 C.3     1  UNL1        0.0151
     19 C          54.2822   96.6724   -3.3609 C.3     1  UNL1        0.0785
     20 C          53.4266   95.8988   -2.4020 C.3     1  UNL1        0.0290
     21 C          54.3333   95.1887   -1.4409 C.3     1  UNL1        0.0760
     22 N          52.8979   95.4207   -1.8094 N.am    1  UNL1       -0.3056
     23 C          52.8663   96.3377   -2.9960 C.2     1  UNL1        0.2220
     24 O          51.6351   96.8329   -3.6950 O.2     1  UNL1       -0.2751
     25 H          52.1141   95.0383   -1.3526 H       1  UNL1        0.1494
     26 C          60.1760   90.3781    6.0637 C.ar    1  UNL1       -0.0000
     27 C          61.0399   90.7118    7.2437 C.ar    1  UNL1       -0.0001
     28 C          60.9153   89.9207    8.5121 C.ar    1  UNL1        0.0039
     29 C          59.9267   88.7960    8.6004 C.ar    1  UNL1        0.0714
     30 C          59.0628   88.4623    7.4204 C.ar    1  UNL1        0.0039
     31 C          59.1875   89.2533    6.1521 C.ar    1  UNL1       -0.0001
     32 C          59.8021   88.0049    9.8687 C.3     1  UNL1        0.4186
     33 F          59.6775   87.2139   11.1371 F       1  UNL1       -0.1659
     34 F          59.7908   89.2781   10.6617 F       1  UNL1       -0.1659
     35 F          59.8134   86.7317    9.0758 F       1  UNL1       -0.1659
     36 O          64.8723   94.9459   -0.1391 O.co2   1  UNL1       -0.5446
     37 C          64.6174   93.6384    0.5505 C.2     1  UNL1        0.0729
     38 O          65.7183   92.6267    0.6708 O.co2   1  UNL1       -0.5446
@<TRIPOS>UNITY_ATOM_ATTR
36 1
charge -1
@<TRIPOS>BOND
     1    36    37   ar
     2    37    38   ar
     3    37     1    1
     4     1     2   ar
     5     2     3   ar
     6     3    11    1
     7    11    12   ar
     8    12    13   ar
     9    13    14   ar
    10    17    14    1
    11    17    18    1
    12    19    18    1
    13    19    20    1
    14    20    21    1
    15    21    22    1
    16    22    23   am
    17    23    24    2
    18    14    15   ar
    19    15    16   ar
    20     3     4   ar
    21     4     5   ar
    22     5     6   ar
    23     6     7   ar
    24     7    26    1
    25    26    27   ar
    26    27    28   ar
    27    28    29   ar
    28    29    32    1
    29    32    33    1
    30    32    34    1
    31    32    35    1
    32    29    30   ar
    33    30    31   ar
    34     7     8   ar
    35     8     9   ar
    36     9    10   ar
    37    10     1   ar
    38    16    11   ar
    39     9     4   ar
    40    21    17    1
    41    31    26   ar
    42    23    19    1
    43    22    25    1
