@<TRIPOS>MOLECULE
*****
 27 29 0 0 0
SMALL
GASTEIGER

@<TRIPOS>ATOM
      1 C          64.6123   91.5783   11.8830 C.ar    1  UNL1        0.1534
      2 C          63.6471   91.5055   10.7371 C.ar    1  UNL1        0.0351
      3 C          62.6314   90.4032   10.6809 C.ar    1  UNL1        0.0722
      4 CL         61.6662   90.3304    9.5349 Cl      1  UNL1       -0.0809
      5 C          62.5810   89.3736   11.7705 C.ar    1  UNL1        0.0577
      6 C          63.5461   89.4463   12.9164 C.ar    1  UNL1        0.0462
      7 C          64.5618   90.5487   12.9727 C.ar    1  UNL1        0.1602
      8 F          65.5270   90.6215   14.1186 F       1  UNL1       -0.2027
      9 O          65.1887   93.0141   13.3342 O.2     1  UNL1       -0.1498
     10 S          65.6280   92.6807   11.9393 S.O2    1  UNL1        0.0772
     11 O          66.0672   92.3473   10.5444 O.2     1  UNL1       -0.1498
     12 N          66.6436   93.7830   11.9956 N.pl3   1  UNL1       -0.1936
     13 H          67.2614   93.8446   12.7597 H       1  UNL1        0.1758
     14 C          66.7181   94.7916   10.8878 C.ar    1  UNL1        0.1786
     15 N          67.7595   94.8416    9.8094 N.ar    1  UNL1       -0.2214
     16 C          67.4492   96.0082    8.9190 C.ar    1  UNL1        0.1079
     17 C          66.2159   96.6792    9.4471 C.ar    1  UNL1        0.0588
     18 S          65.7640   95.9273   10.6639 S.2     1  UNL1       -0.0497
     19 N          61.5652   88.2712   11.7143 N.pl3   1  UNL1       -0.3319
     20 H          60.6815   88.3944   12.1302 H       1  UNL1        0.1468
     21 C          61.8960   86.9811   11.0243 C.3     1  UNL1        0.0871
     22 C          61.8792   86.9059    9.5262 C.3     1  UNL1        0.0239
     23 C          60.5733   86.8072    8.7948 C.3     1  UNL1        0.0332
     24 C          59.2525   87.5126    8.8827 C.3     1  UNL1        0.0700
     25 N          58.7265   86.6676    7.7606 N.3     1  UNL1       -0.2974
     26 C          60.0474   85.9622    7.6727 C.3     1  UNL1        0.0700
     27 H          58.4793   87.1946    6.9230 H       1  UNL1        0.1232
@<TRIPOS>BOND
     1     9    10    2
     2    10    11    2
     3    10    12    1
     4    12    14    1
     5    14    15   ar
     6    15    16   ar
     7    16    17   ar
     8    17    18   ar
     9    10     1    1
    10     1     2   ar
    11     2     3   ar
    12     3     4    1
    13     3     5   ar
    14     5    19    1
    15    19    21    1
    16    21    22    1
    17    22    23    1
    18    23    24    1
    19    24    25    1
    20    25    26    1
    21     5     6   ar
    22     6     7   ar
    23     7     8    1
    24    18    14   ar
    25     7     1   ar
    26    26    23    1
    27    12    13    1
    28    19    20    1
    29    25    27    1
@<TRIPOS>MOLECULE
*****
 27 29 0 0 0
SMALL
GASTEIGER

@<TRIPOS>ATOM
      1 C          63.1698   90.4449   11.8565 C.ar    1  UNL1        0.1534
      2 C          63.8936   90.5463   13.1664 C.ar    1  UNL1        0.0351
      3 C          65.0581   91.4809   13.3093 C.ar    1  UNL1        0.0722
      4 CL         65.7820   91.5824   14.6192 Cl      1  UNL1       -0.0809
      5 C          65.4989   92.3139   12.1423 C.ar    1  UNL1        0.0577
      6 C          64.7751   92.2124   10.8325 C.ar    1  UNL1        0.0462
      7 C          63.6106   91.2779   10.6895 C.ar    1  UNL1        0.1602
      8 F          62.8868   91.1764    9.3796 F       1  UNL1       -0.2027
      9 O          62.8815   88.3582   12.1068 O.2     1  UNL1       -0.1498
     10 S          62.0052   89.5103   11.7135 S.O2    1  UNL1        0.0772
     11 O          61.1289   90.6624   11.3202 O.2     1  UNL1       -0.1498
     12 N          60.8407   88.5757   11.5705 N.pl3   1  UNL1       -0.1936
     13 H          60.2552   88.3973   12.3416 H       1  UNL1        0.1758
     14 C          60.5683   87.9130   10.2527 C.ar    1  UNL1        0.1786
     15 N          59.8437   88.5256    9.0909 N.ar    1  UNL1       -0.2214
     16 C          59.8002   87.5126    7.9855 C.ar    1  UNL1        0.1079
     17 C          60.4979   86.2739    8.4641 C.ar    1  UNL1        0.0588
     18 S          60.9726   86.5214    9.8654 S.2     1  UNL1       -0.0497
     19 N          66.6635   93.2485   12.2853 N.pl3   1  UNL1       -0.3319
     20 H          67.5828   92.9051   12.2065 H       1  UNL1        0.1468
     21 C          66.4274   94.7062   12.5484 C.3     1  UNL1        0.0871
     22 C          65.9666   95.6037   11.4383 C.3     1  UNL1        0.0239
     23 C          66.7827   95.7271   10.1858 C.3     1  UNL1        0.0332
     24 C          67.1588   96.8553    9.2718 C.3     1  UNL1        0.0700
     25 N          67.9369   95.9015    8.4145 N.3     1  UNL1       -0.2974
     26 C          67.5608   94.7732    9.3286 C.3     1  UNL1        0.0700
     27 H          68.9380   96.0939    8.3806 H       1  UNL1        0.1232
@<TRIPOS>BOND
     1     9    10    2
     2    10    11    2
     3    10    12    1
     4    12    14    1
     5    14    15   ar
     6    15    16   ar
     7    16    17   ar
     8    17    18   ar
     9    10     1    1
    10     1     2   ar
    11     2     3   ar
    12     3     4    1
    13     3     5   ar
    14     5    19    1
    15    19    21    1
    16    21    22    1
    17    22    23    1
    18    23    24    1
    19    24    25    1
    20    25    26    1
    21     5     6   ar
    22     6     7   ar
    23     7     8    1
    24    18    14   ar
    25     7     1   ar
    26    26    23    1
    27    12    13    1
    28    19    20    1
    29    25    27    1
@<TRIPOS>MOLECULE
*****
 27 29 0 0 0
SMALL
GASTEIGER

@<TRIPOS>ATOM
      1 C          63.7387   90.7326   11.9442 C.ar    1  UNL1        0.1534
      2 C          62.7626   90.7621   10.8056 C.ar    1  UNL1        0.0351
      3 C          61.8956   89.5696   10.5300 C.ar    1  UNL1        0.0722
      4 CL         60.9195   89.5990    9.3914 Cl      1  UNL1       -0.0809
      5 C          62.0047   88.3475   11.3930 C.ar    1  UNL1        0.0577
      6 C          62.9807   88.3180   12.5315 C.ar    1  UNL1        0.0462
      7 C          63.8478   89.5106   12.8072 C.ar    1  UNL1        0.1602
      8 F          64.8239   89.4811   13.9458 F       1  UNL1       -0.2027
      9 O          64.1514   91.9251   13.6494 O.2     1  UNL1       -0.1498
     10 S          64.6058   91.9253   12.2199 S.O2    1  UNL1        0.0772
     11 O          65.0602   91.9254   10.7904 O.2     1  UNL1       -0.1498
     12 N          65.4728   93.1178   12.4956 N.pl3   1  UNL1       -0.1936
     13 H          65.3288   93.9562   12.0000 H       1  UNL1        0.1758
     14 C          66.5593   93.0330   13.5264 C.ar    1  UNL1        0.1786
     15 N          66.7690   93.9846   14.6667 N.ar    1  UNL1       -0.2214
     16 C          67.9661   93.5214   15.4428 C.ar    1  UNL1        0.1079
     17 C          68.4963   92.2834   14.7821 C.ar    1  UNL1        0.0588
     18 S          67.6268   91.9816   13.5976 S.2     1  UNL1       -0.0497
     19 N          61.1376   87.1549   11.1173 N.pl3   1  UNL1       -0.3319
     20 H          60.1629   87.2155   11.2422 H       1  UNL1        0.1468
     21 C          61.7555   85.8700   10.6514 C.3     1  UNL1        0.0871
     22 C          62.1608   84.8270   11.6505 C.3     1  UNL1        0.0239
     23 C          63.3288   83.9299   11.3662 C.3     1  UNL1        0.0332
     24 C          64.3814   83.2624   12.2008 C.3     1  UNL1        0.0700
     25 N          64.9807   82.6612   10.9642 N.3     1  UNL1       -0.2974
     26 C          63.9282   83.3287   10.1295 C.3     1  UNL1        0.0700
     27 H          64.9480   81.6420   10.9387 H       1  UNL1        0.1232
@<TRIPOS>BOND
     1     9    10    2
     2    10    11    2
     3    10    12    1
     4    12    14    1
     5    14    15   ar
     6    15    16   ar
     7    16    17   ar
     8    17    18   ar
     9    10     1    1
    10     1     2   ar
    11     2     3   ar
    12     3     4    1
    13     3     5   ar
    14     5    19    1
    15    19    21    1
    16    21    22    1
    17    22    23    1
    18    23    24    1
    19    24    25    1
    20    25    26    1
    21     5     6   ar
    22     6     7   ar
    23     7     8    1
    24    18    14   ar
    25     7     1   ar
    26    26    23    1
    27    12    13    1
    28    19    20    1
    29    25    27    1
@<TRIPOS>MOLECULE
*****
 27 29 0 0 0
SMALL
GASTEIGER

@<TRIPOS>ATOM
      1 C          63.7793   86.6226   15.5408 C.ar    1  UNL1        0.1534
      2 C          64.1846   87.5643   14.4459 C.ar    1  UNL1        0.0351
      3 C          64.0629   89.0457   14.6476 C.ar    1  UNL1        0.0722
      4 CL         64.4682   89.9875   13.5527 Cl      1  UNL1       -0.0809
      5 C          63.5360   89.5853   15.9442 C.ar    1  UNL1        0.0577
      6 C          63.1307   88.6436   17.0391 C.ar    1  UNL1        0.0462
      7 C          63.2524   87.1622   16.8374 C.ar    1  UNL1        0.1602
      8 F          62.8471   86.2204   17.9323 F       1  UNL1       -0.2027
      9 O          62.4256   84.9895   15.5631 O.2     1  UNL1       -0.1498
     10 S          63.9010   85.1411   15.3391 S.O2    1  UNL1        0.0772
     11 O          65.3764   85.2928   15.1152 O.2     1  UNL1       -0.1498
     12 N          64.0226   83.6598   15.1375 N.pl3   1  UNL1       -0.1936
     13 H          64.2963   83.0819   15.8861 H       1  UNL1        0.1758
     14 C          63.7273   83.0588   13.7952 C.ar    1  UNL1        0.1786
     15 N          64.4171   83.3966   12.5068 N.ar    1  UNL1       -0.2214
     16 C          63.8064   82.5611   11.4211 C.ar    1  UNL1        0.1079
     17 C          62.7390   81.7068   12.0384 C.ar    1  UNL1        0.0588
     18 S          62.6901   82.0144   13.5058 S.2     1  UNL1       -0.0497
     19 N          63.4143   91.0667   16.1458 N.pl3   1  UNL1       -0.3319
     20 H          62.5513   91.5151   15.9928 H       1  UNL1        0.1468
     21 C          64.6075   91.8650   16.5805 C.3     1  UNL1        0.0871
     22 C          65.3916   92.6514   15.5722 C.3     1  UNL1        0.0239
     23 C          66.8425   92.3454   15.3461 C.3     1  UNL1        0.0332
     24 C          67.6538   91.8504   14.1856 C.3     1  UNL1        0.0700
     25 N          68.8945   91.9127   15.0264 N.3     1  UNL1       -0.2974
     26 C          68.0832   92.4077   16.1869 C.3     1  UNL1        0.0700
     27 H          69.5914   92.5779   14.6916 H       1  UNL1        0.1232
@<TRIPOS>BOND
     1     9    10    2
     2    10    11    2
     3    10    12    1
     4    12    14    1
     5    14    15   ar
     6    15    16   ar
     7    16    17   ar
     8    17    18   ar
     9    10     1    1
    10     1     2   ar
    11     2     3   ar
    12     3     4    1
    13     3     5   ar
    14     5    19    1
    15    19    21    1
    16    21    22    1
    17    22    23    1
    18    23    24    1
    19    24    25    1
    20    25    26    1
    21     5     6   ar
    22     6     7   ar
    23     7     8    1
    24    18    14   ar
    25     7     1   ar
    26    26    23    1
    27    12    13    1
    28    19    20    1
    29    25    27    1
@<TRIPOS>MOLECULE
*****
 27 29 0 0 0
SMALL
GASTEIGER

@<TRIPOS>ATOM
      1 C          65.6102   92.4737   12.4226 C.ar    1  UNL1        0.1534
      2 C          64.3856   91.8676   11.8036 C.ar    1  UNL1        0.0351
      3 C          63.5551   90.8925   12.5841 C.ar    1  UNL1        0.0722
      4 CL         62.3305   90.2864   11.9652 Cl      1  UNL1       -0.0809
      5 C          63.9491   90.5233   13.9836 C.ar    1  UNL1        0.0577
      6 C          65.1737   91.1294   14.6026 C.ar    1  UNL1        0.0462
      7 C          66.0042   92.1045   13.8220 C.ar    1  UNL1        0.1602
      8 F          67.2288   92.7106   14.4410 F       1  UNL1       -0.2027
      9 O          66.1842   94.4993   12.6816 O.2     1  UNL1       -0.1498
     10 S          66.4408   93.4489   11.6421 S.O2    1  UNL1        0.0772
     11 O          66.6973   92.3985   10.6025 O.2     1  UNL1       -0.1498
     12 N          67.2713   94.4241   10.8616 N.pl3   1  UNL1       -0.1936
     13 H          68.2462   94.4575   10.9948 H       1  UNL1        0.1758
     14 C          66.6165   95.3484    9.8783 C.ar    1  UNL1        0.1786
     15 N          65.2919   96.0295   10.0555 N.ar    1  UNL1       -0.2214
     16 C          65.0282   96.8559    8.8318 C.ar    1  UNL1        0.1079
     17 C          66.1898   96.6856    7.8982 C.ar    1  UNL1        0.0588
     18 S          67.1715   95.7538    8.5450 S.2     1  UNL1       -0.0497
     19 N          63.1185   89.5481   14.7641 N.pl3   1  UNL1       -0.3319
     20 H          62.1467   89.6834   14.8450 H       1  UNL1        0.1468
     21 C          63.7686   88.3668   15.4213 C.3     1  UNL1        0.0871
     22 C          64.5243   87.3698   14.5936 C.3     1  UNL1        0.0239
     23 C          64.4258   85.9063   14.9074 C.3     1  UNL1        0.0332
     24 C          63.6093   85.0770   15.8538 C.3     1  UNL1        0.0700
     25 N          64.2866   83.8366   15.3512 N.3     1  UNL1       -0.2974
     26 C          65.1031   84.6659   14.4048 C.3     1  UNL1        0.0700
     27 H          63.6591   83.1767   14.8916 H       1  UNL1        0.1232
@<TRIPOS>BOND
     1     9    10    2
     2    10    11    2
     3    10    12    1
     4    12    14    1
     5    14    15   ar
     6    15    16   ar
     7    16    17   ar
     8    17    18   ar
     9    10     1    1
    10     1     2   ar
    11     2     3   ar
    12     3     4    1
    13     3     5   ar
    14     5    19    1
    15    19    21    1
    16    21    22    1
    17    22    23    1
    18    23    24    1
    19    24    25    1
    20    25    26    1
    21     5     6   ar
    22     6     7   ar
    23     7     8    1
    24    18    14   ar
    25     7     1   ar
    26    26    23    1
    27    12    13    1
    28    19    20    1
    29    25    27    1
@<TRIPOS>MOLECULE
*****
 27 29 0 0 0
SMALL
GASTEIGER

@<TRIPOS>ATOM
      1 C          62.6166   89.7199   11.9031 C.ar    1  UNL1        0.1534
      2 C          63.2053   89.8005   13.2804 C.ar    1  UNL1        0.0351
      3 C          64.2459   90.8349   13.5918 C.ar    1  UNL1        0.0722
      4 CL         64.8346   90.9156   14.9692 Cl      1  UNL1       -0.0809
      5 C          64.6979   91.7887   12.5260 C.ar    1  UNL1        0.0577
      6 C          64.1092   91.7081   11.1487 C.ar    1  UNL1        0.0462
      7 C          63.0686   90.6737   10.8373 C.ar    1  UNL1        0.1602
      8 F          62.4799   90.5931    9.4599 F       1  UNL1       -0.2027
      9 O          60.5345   89.7611   11.4991 O.2     1  UNL1       -0.1498
     10 S          61.5759   88.6855   11.5916 S.O2    1  UNL1        0.0772
     11 O          62.6173   87.6099   11.6841 O.2     1  UNL1       -0.1498
     12 N          60.5352   87.6511   11.2801 N.pl3   1  UNL1       -0.1936
     13 H          59.9719   87.2871   12.0008 H       1  UNL1        0.1758
     14 C          60.3529   87.1714    9.8706 C.ar    1  UNL1        0.1786
     15 N          61.1441   86.0889    9.1983 N.ar    1  UNL1       -0.2214
     16 C          60.6274   85.9385    7.7982 C.ar    1  UNL1        0.1079
     17 C          59.5169   86.9282    7.6050 C.ar    1  UNL1        0.0588
     18 S          59.3472   87.6902    8.8860 S.2     1  UNL1       -0.0497
     19 N          65.7386   92.8232   12.8375 N.pl3   1  UNL1       -0.3319
     20 H          65.9102   93.0831   13.7714 H       1  UNL1        0.1468
     21 C          66.5177   93.4616   11.7261 C.3     1  UNL1        0.0871
     22 C          66.2482   94.8868   11.3436 C.3     1  UNL1        0.0239
     23 C          66.9099   95.4765   10.1335 C.3     1  UNL1        0.0332
     24 C          67.7284   94.9316    9.0007 C.3     1  UNL1        0.0700
     25 N          67.8456   96.3105    8.4221 N.3     1  UNL1       -0.2974
     26 C          67.0271   96.8554    9.5548 C.3     1  UNL1        0.0700
     27 H          67.4106   96.4159    7.5056 H       1  UNL1        0.1232
@<TRIPOS>BOND
     1     9    10    2
     2    10    11    2
     3    10    12    1
     4    12    14    1
     5    14    15   ar
     6    15    16   ar
     7    16    17   ar
     8    17    18   ar
     9    10     1    1
    10     1     2   ar
    11     2     3   ar
    12     3     4    1
    13     3     5   ar
    14     5    19    1
    15    19    21    1
    16    21    22    1
    17    22    23    1
    18    23    24    1
    19    24    25    1
    20    25    26    1
    21     5     6   ar
    22     6     7   ar
    23     7     8    1
    24    18    14   ar
    25     7     1   ar
    26    26    23    1
    27    12    13    1
    28    19    20    1
    29    25    27    1
@<TRIPOS>MOLECULE
*****
 27 29 0 0 0
SMALL
GASTEIGER

@<TRIPOS>ATOM
      1 C          64.5594   91.3851   12.0889 C.ar    1  UNL1        0.1534
      2 C          63.6220   91.2710   10.9235 C.ar    1  UNL1        0.0351
      3 C          62.6982   90.0941   10.8165 C.ar    1  UNL1        0.0722
      4 CL         61.7607   89.9800    9.6510 Cl      1  UNL1       -0.0809
      5 C          62.7118   89.0313   11.8749 C.ar    1  UNL1        0.0577
      6 C          63.6491   89.1454   13.0403 C.ar    1  UNL1        0.0462
      7 C          64.5729   90.3223   13.1473 C.ar    1  UNL1        0.1602
      8 F          65.5104   90.4364   14.3128 F       1  UNL1       -0.2027
      9 O          65.8667   92.3919   10.7559 O.2     1  UNL1       -0.1498
     10 S          65.4832   92.5620   12.1960 S.O2    1  UNL1        0.0772
     11 O          65.0998   92.7321   13.6361 O.2     1  UNL1       -0.1498
     12 N          66.4070   93.7389   12.3030 N.pl3   1  UNL1       -0.1936
     13 H          66.8644   93.9299   13.1536 H       1  UNL1        0.1758
     14 C          66.6341   94.6247   11.1139 C.ar    1  UNL1        0.1786
     15 N          67.6782   94.4287   10.0549 N.ar    1  UNL1       -0.2214
     16 C          67.5463   95.5449    9.0617 C.ar    1  UNL1        0.1079
     17 C          66.4206   96.4309    9.5067 C.ar    1  UNL1        0.0588
     18 S          65.8568   95.8621   10.7752 S.2     1  UNL1       -0.0497
     19 N          61.7879   87.8544   11.7678 N.pl3   1  UNL1       -0.3319
     20 H          60.8823   87.9030   12.1510 H       1  UNL1        0.1468
     21 C          62.2438   86.6034   11.0771 C.3     1  UNL1        0.0871
     22 C          62.2247   85.2936   11.8079 C.3     1  UNL1        0.0239
     23 C          63.2947   84.2747   11.5493 C.3     1  UNL1        0.0332
     24 C          63.8346   83.5900   10.3287 C.3     1  UNL1        0.0700
     25 N          64.8080   82.8338   11.1835 N.3     1  UNL1       -0.2974
     26 C          64.2681   83.5185   12.4041 C.3     1  UNL1        0.0700
     27 H          65.7863   83.0444   10.9864 H       1  UNL1        0.1232
@<TRIPOS>BOND
     1     9    10    2
     2    10    11    2
     3    10    12    1
     4    12    14    1
     5    14    15   ar
     6    15    16   ar
     7    16    17   ar
     8    17    18   ar
     9    10     1    1
    10     1     2   ar
    11     2     3   ar
    12     3     4    1
    13     3     5   ar
    14     5    19    1
    15    19    21    1
    16    21    22    1
    17    22    23    1
    18    23    24    1
    19    24    25    1
    20    25    26    1
    21     5     6   ar
    22     6     7   ar
    23     7     8    1
    24    18    14   ar
    25     7     1   ar
    26    26    23    1
    27    12    13    1
    28    19    20    1
    29    25    27    1
@<TRIPOS>MOLECULE
*****
 27 29 0 0 0
SMALL
GASTEIGER

@<TRIPOS>ATOM
      1 C          63.9168   86.7384   14.0833 C.ar    1  UNL1        0.1534
      2 C          64.3036   87.8893   14.9640 C.ar    1  UNL1        0.0351
      3 C          64.1226   89.2976   14.4805 C.ar    1  UNL1        0.0722
      4 CL         64.5094   90.4486   15.3612 Cl      1  UNL1       -0.0809
      5 C          63.5547   89.5550   13.1162 C.ar    1  UNL1        0.0577
      6 C          63.1679   88.4041   12.2355 C.ar    1  UNL1        0.0462
      7 C          63.3490   86.9958   12.7190 C.ar    1  UNL1        0.1602
      8 F          62.9621   85.8448   11.8382 F       1  UNL1       -0.2027
      9 O          65.5869   85.5033   14.5138 O.2     1  UNL1       -0.1498
     10 S          64.0979   85.3300   14.5668 S.O2    1  UNL1        0.0772
     11 O          62.6089   85.1568   14.6199 O.2     1  UNL1       -0.1498
     12 N          64.2790   83.9217   15.0503 N.pl3   1  UNL1       -0.1936
     13 H          64.8064   83.7441   15.8624 H       1  UNL1        0.1758
     14 C          63.6565   82.7840   14.2965 C.ar    1  UNL1        0.1786
     15 N          62.5723   81.8794   14.8026 N.ar    1  UNL1       -0.2214
     16 C          62.2547   80.8875   13.7231 C.ar    1  UNL1        0.1079
     17 C          63.1426   81.1792   12.5497 C.ar    1  UNL1        0.0588
     18 S          64.0090   82.3513   12.9041 S.2     1  UNL1       -0.0497
     19 N          63.3736   90.9634   12.6327 N.pl3   1  UNL1       -0.3319
     20 H          62.4684   91.3184   12.4786 H       1  UNL1        0.1468
     21 C          64.5718   91.8309   12.3839 C.3     1  UNL1        0.0871
     22 C          64.9362   92.2227   10.9826 C.3     1  UNL1        0.0239
     23 C          65.8961   93.3505   10.7447 C.3     1  UNL1        0.0332
     24 C          66.2197   94.6344   11.4496 C.3     1  UNL1        0.0700
     25 N          67.2536   94.9455   10.4083 N.3     1  UNL1       -0.2974
     26 C          66.9299   93.6616    9.7034 C.3     1  UNL1        0.0700
     27 H          68.2064   94.9938   10.7689 H       1  UNL1        0.1232
@<TRIPOS>BOND
     1     9    10    2
     2    10    11    2
     3    10    12    1
     4    12    14    1
     5    14    15   ar
     6    15    16   ar
     7    16    17   ar
     8    17    18   ar
     9    10     1    1
    10     1     2   ar
    11     2     3   ar
    12     3     4    1
    13     3     5   ar
    14     5    19    1
    15    19    21    1
    16    21    22    1
    17    22    23    1
    18    23    24    1
    19    24    25    1
    20    25    26    1
    21     5     6   ar
    22     6     7   ar
    23     7     8    1
    24    18    14   ar
    25     7     1   ar
    26    26    23    1
    27    12    13    1
    28    19    20    1
    29    25    27    1
@<TRIPOS>MOLECULE
*****
 27 29 0 0 0
SMALL
GASTEIGER

@<TRIPOS>ATOM
      1 C          64.5842   91.3910   12.0387 C.ar    1  UNL1        0.1534
      2 C          64.6364   90.3297   13.0974 C.ar    1  UNL1        0.0351
      3 C          63.7273   89.1397   13.0118 C.ar    1  UNL1        0.0722
      4 CL         63.7795   88.0783   14.0706 Cl      1  UNL1       -0.0809
      5 C          62.7661   89.0109   11.8675 C.ar    1  UNL1        0.0577
      6 C          62.7139   90.0722   10.8088 C.ar    1  UNL1        0.0462
      7 C          63.6229   91.2622   10.8944 C.ar    1  UNL1        0.1602
      8 F          63.5708   92.3236    9.8357 F       1  UNL1       -0.2027
      9 O          65.0925   92.7844   13.5553 O.2     1  UNL1       -0.1498
     10 S          65.4933   92.5811   12.1242 S.O2    1  UNL1        0.0772
     11 O          65.8941   92.3778   10.6932 O.2     1  UNL1       -0.1498
     12 N          66.4023   93.7712   12.2098 N.pl3   1  UNL1       -0.1936
     13 H          66.8570   93.9834   13.0569 H       1  UNL1        0.1758
     14 C          66.6187   94.6379   11.0048 C.ar    1  UNL1        0.1786
     15 N          67.6854   94.4540    9.9664 N.ar    1  UNL1       -0.2214
     16 C          67.5322   95.5432    8.9466 C.ar    1  UNL1        0.1079
     17 C          66.3708   96.4004    9.3546 C.ar    1  UNL1        0.0588
     18 S          65.8062   95.8408   10.6268 S.2     1  UNL1       -0.0497
     19 N          61.8570   87.8208   11.7820 N.pl3   1  UNL1       -0.3319
     20 H          60.9550   87.8612   12.1744 H       1  UNL1        0.1468
     21 C          62.3222   86.5692   11.0986 C.3     1  UNL1        0.0871
     22 C          62.3210   85.2651   11.8399 C.3     1  UNL1        0.0239
     23 C          63.3560   84.2248   11.5291 C.3     1  UNL1        0.0332
     24 C          63.8761   83.5877   10.2747 C.3     1  UNL1        0.0700
     25 N          64.8196   82.7536   11.0896 N.3     1  UNL1       -0.2974
     26 C          64.2995   83.3907   12.3440 C.3     1  UNL1        0.0700
     27 H          65.8054   82.9401   10.9057 H       1  UNL1        0.1232
@<TRIPOS>BOND
     1     9    10    2
     2    10    11    2
     3    10    12    1
     4    12    14    1
     5    14    15   ar
     6    15    16   ar
     7    16    17   ar
     8    17    18   ar
     9    10     1    1
    10     1     2   ar
    11     2     3   ar
    12     3     4    1
    13     3     5   ar
    14     5    19    1
    15    19    21    1
    16    21    22    1
    17    22    23    1
    18    23    24    1
    19    24    25    1
    20    25    26    1
    21     5     6   ar
    22     6     7   ar
    23     7     8    1
    24    18    14   ar
    25     7     1   ar
    26    26    23    1
    27    12    13    1
    28    19    20    1
    29    25    27    1
