@<TRIPOS>MOLECULE
*****
 21 23 0 0 0
SMALL
GASTEIGER

@<TRIPOS>ATOM
      1 C          62.4098   86.3815   11.8241 C.ar    1  UNL1        0.1733
      2 C          61.7110   85.7760   10.6430 C.ar    1  UNL1        0.0416
      3 C          61.3591   86.6298    9.4610 C.ar    1  UNL1        0.0222
      4 C          61.7061   88.0891    9.4600 C.ar    1  UNL1        0.0813
      5 N          62.4049   88.6946   10.6411 N.ar    1  UNL1       -0.2904
      6 C          62.8704   90.0923   10.9238 C.ar    1  UNL1        0.0567
      7 C          62.7223   91.2726   10.0102 C.3     1  UNL1        0.0517
      8 C          63.5099   90.1023   12.2806 C.ar    1  UNL1        0.0730
      9 C          64.1137   91.2945   12.9620 C.3     1  UNL1        0.0534
     10 N          63.4397   88.7108   12.8365 N.ar    1  UNL1       -0.2284
     11 C          62.7567   87.8409   11.8231 C.ar    1  UNL1        0.1817
     12 O          62.7617   85.5277   13.0062 O.3     1  UNL1       -0.4676
     13 C          63.7672   84.4241   12.8614 C.3     1  UNL1        0.2315
     14 C          62.5795   83.1594   15.3089 C.3     1  UNL1        0.0308
     15 C          62.7182   82.3630   14.0454 C.ar    1  UNL1       -0.0226
     16 C          62.2631   80.9343   14.0056 C.ar    1  UNL1       -0.0045
     17 C          62.4018   80.1379   12.7421 C.ar    1  UNL1       -0.0007
     18 C          62.9956   80.7702   11.5183 C.ar    1  UNL1       -0.0045
     19 C          63.4508   82.1989   11.5581 C.ar    1  UNL1       -0.0226
     20 C          64.0446   82.8312   10.3344 C.3     1  UNL1        0.0308
     21 C          63.3120   82.9954   12.8216 C.ar    1  UNL1        0.0133
@<TRIPOS>BOND
     1    14    15    1
     2    15    16   ar
     3    16    17   ar
     4    17    18   ar
     5    18    19   ar
     6    19    20    1
     7    19    21   ar
     8    21    13    1
     9    13    12    1
    10    12     1    1
    11     1     2   ar
    12     2     3   ar
    13     3     4   ar
    14     4     5   ar
    15     5     6   ar
    16     6     7    1
    17     6     8   ar
    18     8     9    1
    19     8    10   ar
    20    10    11   ar
    21    21    15   ar
    22    11     1   ar
    23    11     5   ar
@<TRIPOS>MOLECULE
*****
 21 23 0 0 0
SMALL
GASTEIGER

@<TRIPOS>ATOM
      1 C          62.4266   86.3696   11.8574 C.ar    1  UNL1        0.1733
      2 C          61.7178   85.7533   10.6879 C.ar    1  UNL1        0.0416
      3 C          61.3481   86.5982    9.5049 C.ar    1  UNL1        0.0222
      4 C          61.6873   88.0593    9.4914 C.ar    1  UNL1        0.0813
      5 N          62.3961   88.6755   10.6609 N.ar    1  UNL1       -0.2904
      6 C          62.8573   90.0772   10.9301 C.ar    1  UNL1        0.0567
      7 C          62.6927   91.2513   10.0112 C.3     1  UNL1        0.0517
      8 C          63.5120   90.0987   12.2796 C.ar    1  UNL1        0.0730
      9 C          64.1171   91.2981   12.9470 C.3     1  UNL1        0.0534
     10 N          63.4554   88.7102   12.8443 N.ar    1  UNL1       -0.2284
     11 C          62.7657   87.8306   11.8439 C.ar    1  UNL1        0.1817
     12 O          62.7962   85.5247   13.0405 O.3     1  UNL1       -0.4676
     13 C          63.8033   84.4232   12.8901 C.3     1  UNL1        0.2315
     14 C          64.1094   82.8905   10.3295 C.3     1  UNL1        0.0308
     15 C          63.5010   82.2299   11.5308 C.ar    1  UNL1       -0.0226
     16 C          63.0455   80.8028   11.4519 C.ar    1  UNL1       -0.0045
     17 C          62.4370   80.1422   12.6533 C.ar    1  UNL1       -0.0007
     18 C          62.2840   80.9086   13.9336 C.ar    1  UNL1       -0.0045
     19 C          62.7394   82.3356   14.0126 C.ar    1  UNL1       -0.0226
     20 C          62.5863   83.1020   15.2929 C.3     1  UNL1        0.0308
     21 C          63.3479   82.9963   12.8112 C.ar    1  UNL1        0.0133
@<TRIPOS>BOND
     1    14    15    1
     2    15    16   ar
     3    16    17   ar
     4    17    18   ar
     5    18    19   ar
     6    19    20    1
     7    19    21   ar
     8    21    13    1
     9    13    12    1
    10    12     1    1
    11     1     2   ar
    12     2     3   ar
    13     3     4   ar
    14     4     5   ar
    15     5     6   ar
    16     6     7    1
    17     6     8   ar
    18     8     9    1
    19     8    10   ar
    20    10    11   ar
    21    21    15   ar
    22    11     1   ar
    23    11     5   ar
@<TRIPOS>MOLECULE
*****
 21 23 0 0 0
SMALL
GASTEIGER

@<TRIPOS>ATOM
      1 C          62.3831   85.9124   11.0249 C.ar    1  UNL1        0.1733
      2 C          62.7878   84.9917    9.9120 C.ar    1  UNL1        0.0416
      3 C          62.3789   85.2955    8.5012 C.ar    1  UNL1        0.0222
      4 C          61.5653   86.5200    8.2033 C.ar    1  UNL1        0.0813
      5 N          61.1607   87.4407    9.3161 N.ar    1  UNL1       -0.2904
      6 C          60.3654   88.7124    9.3277 C.ar    1  UNL1        0.0567
      7 C          59.7592   89.3841    8.1313 C.3     1  UNL1        0.0517
      8 C          60.2828   89.1946   10.7457 C.ar    1  UNL1        0.0730
      9 C          59.5794   90.4332   11.2162 C.3     1  UNL1        0.0534
     10 N          61.0270   88.2209   11.6105 N.ar    1  UNL1       -0.2284
     11 C          61.5696   87.1369   10.7270 C.ar    1  UNL1        0.1817
     12 O          62.7920   85.6086   12.4358 O.3     1  UNL1       -0.4676
     13 C          63.7168   84.4618   12.7182 C.3     1  UNL1        0.2315
     14 C          64.1671   82.2906   10.6976 C.3     1  UNL1        0.0308
     15 C          63.3845   82.0040   11.9447 C.ar    1  UNL1       -0.0226
     16 C          62.8270   80.6316   12.1816 C.ar    1  UNL1       -0.0045
     17 C          62.0444   80.3450   13.4287 C.ar    1  UNL1       -0.0007
     18 C          61.8193   81.4306   14.4390 C.ar    1  UNL1       -0.0045
     19 C          62.3767   82.8029   14.2022 C.ar    1  UNL1       -0.0226
     20 C          62.1515   83.8885   15.2125 C.3     1  UNL1        0.0308
     21 C          63.1594   83.0896   12.9550 C.ar    1  UNL1        0.0133
@<TRIPOS>BOND
     1    14    15    1
     2    15    16   ar
     3    16    17   ar
     4    17    18   ar
     5    18    19   ar
     6    19    20    1
     7    19    21   ar
     8    21    13    1
     9    13    12    1
    10    12     1    1
    11     1     2   ar
    12     2     3   ar
    13     3     4   ar
    14     4     5   ar
    15     5     6   ar
    16     6     7    1
    17     6     8   ar
    18     8     9    1
    19     8    10   ar
    20    10    11   ar
    21    21    15   ar
    22    11     1   ar
    23    11     5   ar
@<TRIPOS>MOLECULE
*****
 21 23 0 0 0
SMALL
GASTEIGER

@<TRIPOS>ATOM
      1 C          62.9934   87.6321   12.2146 C.ar    1  UNL1        0.1733
      2 C          62.3711   87.9453   10.8863 C.ar    1  UNL1        0.0416
      3 C          61.8614   86.8348   10.0164 C.ar    1  UNL1        0.0222
      4 C          61.9740   85.4110   10.4748 C.ar    1  UNL1        0.0813
      5 N          62.5963   85.0977   11.8031 N.ar    1  UNL1       -0.2904
      6 C          62.8424   83.8008   12.5154 C.ar    1  UNL1        0.0567
      7 C          62.4887   82.4347   12.0068 C.3     1  UNL1        0.0517
      8 C          63.5042   84.1098   13.8256 C.ar    1  UNL1        0.0730
      9 C          63.9285   83.1068   14.8572 C.3     1  UNL1        0.0534
     10 N          63.6672   85.5977   13.9230 N.ar    1  UNL1       -0.2284
     11 C          63.1060   86.2083   12.6730 C.ar    1  UNL1        0.1817
     12 O          63.5032   88.7426   13.0847 O.3     1  UNL1       -0.4676
     13 C          63.1025   90.1604   12.8028 C.3     1  UNL1        0.2315
     14 C          63.1541   91.3002   10.0282 C.3     1  UNL1        0.0308
     15 C          64.1689   91.7432   11.0401 C.ar    1  UNL1       -0.0226
     16 C          65.2096   92.7562   10.6646 C.ar    1  UNL1       -0.0045
     17 C          66.2244   93.1993   11.6765 C.ar    1  UNL1       -0.0007
     18 C          66.1986   92.6294   13.0638 C.ar    1  UNL1       -0.0045
     19 C          65.1579   91.6164   13.4392 C.ar    1  UNL1       -0.0226
     20 C          65.1321   91.0465   14.8265 C.3     1  UNL1        0.0308
     21 C          64.1431   91.1733   12.4273 C.ar    1  UNL1        0.0133
@<TRIPOS>BOND
     1    14    15    1
     2    15    16   ar
     3    16    17   ar
     4    17    18   ar
     5    18    19   ar
     6    19    20    1
     7    19    21   ar
     8    21    13    1
     9    13    12    1
    10    12     1    1
    11     1     2   ar
    12     2     3   ar
    13     3     4   ar
    14     4     5   ar
    15     5     6   ar
    16     6     7    1
    17     6     8   ar
    18     8     9    1
    19     8    10   ar
    20    10    11   ar
    21    21    15   ar
    22    11     1   ar
    23    11     5   ar
@<TRIPOS>MOLECULE
*****
 21 23 0 0 0
SMALL
GASTEIGER

@<TRIPOS>ATOM
      1 C          62.9927   87.6454   12.2035 C.ar    1  UNL1        0.1733
      2 C          62.3855   87.9544   10.8672 C.ar    1  UNL1        0.0416
      3 C          61.8997   86.8401    9.9885 C.ar    1  UNL1        0.0222
      4 C          62.0211   85.4167   10.4460 C.ar    1  UNL1        0.0813
      5 N          62.6283   85.1077   11.7823 N.ar    1  UNL1       -0.2904
      6 C          62.8783   83.8122   12.4958 C.ar    1  UNL1        0.0567
      7 C          62.5463   82.4433   11.9801 C.3     1  UNL1        0.0517
      8 C          63.5186   84.1258   13.8156 C.ar    1  UNL1        0.0730
      9 C          63.9392   83.1256   14.8513 C.3     1  UNL1        0.0534
     10 N          63.6643   85.6152   13.9178 N.ar    1  UNL1       -0.2284
     11 C          63.1141   86.2220   12.6611 C.ar    1  UNL1        0.1817
     12 O          63.4785   88.7597   13.0824 O.3     1  UNL1       -0.4676
     13 C          63.0940   90.1772   12.7777 C.3     1  UNL1        0.2315
     14 C          65.0857   91.0257   14.8544 C.3     1  UNL1        0.0308
     15 C          65.1475   91.6084   13.4737 C.ar    1  UNL1       -0.0226
     16 C          66.2053   92.6154   13.1312 C.ar    1  UNL1       -0.0045
     17 C          66.2671   93.1982   11.7504 C.ar    1  UNL1       -0.0007
     18 C          65.2712   92.7739   10.7121 C.ar    1  UNL1       -0.0045
     19 C          64.2135   91.7669   11.0545 C.ar    1  UNL1       -0.0226
     20 C          63.2176   91.3427   10.0161 C.3     1  UNL1        0.0308
     21 C          64.1517   91.1842   12.4353 C.ar    1  UNL1        0.0133
@<TRIPOS>BOND
     1    14    15    1
     2    15    16   ar
     3    16    17   ar
     4    17    18   ar
     5    18    19   ar
     6    19    20    1
     7    19    21   ar
     8    21    13    1
     9    13    12    1
    10    12     1    1
    11     1     2   ar
    12     2     3   ar
    13     3     4   ar
    14     4     5   ar
    15     5     6   ar
    16     6     7    1
    17     6     8   ar
    18     8     9    1
    19     8    10   ar
    20    10    11   ar
    21    21    15   ar
    22    11     1   ar
    23    11     5   ar
@<TRIPOS>MOLECULE
*****
 21 23 0 0 0
SMALL
GASTEIGER

@<TRIPOS>ATOM
      1 C          62.6251   88.6515   11.6288 C.ar    1  UNL1        0.1733
      2 C          62.0466   88.9777   10.2839 C.ar    1  UNL1        0.0416
      3 C          62.3799   90.2809    9.6202 C.ar    1  UNL1        0.0222
      4 C          63.2917   91.2579   10.3015 C.ar    1  UNL1        0.0813
      5 N          63.8702   90.9317   11.6464 N.ar    1  UNL1       -0.2904
      6 C          64.7915   91.6917   12.5539 C.ar    1  UNL1        0.0567
      7 C          65.3744   93.0472   12.2842 C.3     1  UNL1        0.0517
      8 C          65.0276   90.8582   13.7785 C.ar    1  UNL1        0.0730
      9 C          65.8881   91.2339   14.9484 C.3     1  UNL1        0.0534
     10 N          64.2522   89.5830   13.6278 N.ar    1  UNL1       -0.2284
     11 C          63.5369   89.6285   12.3101 C.ar    1  UNL1        0.1817
     12 O          62.2918   87.3482   12.2926 O.3     1  UNL1       -0.4676
     13 C          61.7557   86.2078   11.4790 C.3     1  UNL1        0.2315
     14 C          62.6916   85.6711    8.6797 C.3     1  UNL1        0.0308
     15 C          63.0907   84.7493    9.7936 C.ar    1  UNL1       -0.0226
     16 C          63.9579   83.5591    9.5079 C.ar    1  UNL1       -0.0045
     17 C          64.3570   82.6373   10.6218 C.ar    1  UNL1       -0.0007
     18 C          63.8891   82.9056   12.0215 C.ar    1  UNL1       -0.0045
     19 C          63.0220   84.0957   12.3072 C.ar    1  UNL1       -0.0226
     20 C          62.5541   84.3641   13.7069 C.3     1  UNL1        0.0308
     21 C          62.6228   85.0176   11.1933 C.ar    1  UNL1        0.0133
@<TRIPOS>BOND
     1    14    15    1
     2    15    16   ar
     3    16    17   ar
     4    17    18   ar
     5    18    19   ar
     6    19    20    1
     7    19    21   ar
     8    21    13    1
     9    13    12    1
    10    12     1    1
    11     1     2   ar
    12     2     3   ar
    13     3     4   ar
    14     4     5   ar
    15     5     6   ar
    16     6     7    1
    17     6     8   ar
    18     8     9    1
    19     8    10   ar
    20    10    11   ar
    21    21    15   ar
    22    11     1   ar
    23    11     5   ar
@<TRIPOS>MOLECULE
*****
 21 23 0 0 0
SMALL
GASTEIGER

@<TRIPOS>ATOM
      1 C          63.5807   89.9433   12.1138 C.ar    1  UNL1        0.1733
      2 C          63.5001   89.1344   13.3744 C.ar    1  UNL1        0.0416
      3 C          64.2281   89.5886   14.6047 C.ar    1  UNL1        0.0222
      4 C          65.0366   90.8517   14.5745 C.ar    1  UNL1        0.0813
      5 N          65.1171   91.6606   13.3139 N.ar    1  UNL1       -0.2904
      6 C          65.8302   92.9387   12.9852 C.ar    1  UNL1        0.0567
      7 C          66.6811   93.7403   13.9251 C.3     1  UNL1        0.0517
      8 C          65.5430   93.2744   11.5518 C.ar    1  UNL1        0.0730
      9 C          66.0563   94.4707   10.8065 C.3     1  UNL1        0.0534
     10 N          64.6524   92.2038   10.9944 N.ar    1  UNL1       -0.2284
     11 C          64.3892   91.2064   12.0835 C.ar    1  UNL1        0.1817
     12 O          62.8528   89.4891   10.8834 O.3     1  UNL1       -0.4676
     13 C          62.3133   88.0918   10.8040 C.3     1  UNL1        0.2315
     14 C          62.6795   85.4966    9.3443 C.3     1  UNL1        0.0308
     15 C          61.5546   86.4154    8.9699 C.ar    1  UNL1       -0.0226
     16 C          60.6127   86.0366    7.8656 C.ar    1  UNL1       -0.0045
     17 C          59.4878   86.9554    7.4912 C.ar    1  UNL1       -0.0007
     18 C          59.3046   88.2530    8.2210 C.ar    1  UNL1       -0.0045
     19 C          60.2464   88.6318    9.3253 C.ar    1  UNL1       -0.0226
     20 C          60.0633   89.9294   10.0552 C.3     1  UNL1        0.0308
     21 C          61.3715   87.7130    9.6998 C.ar    1  UNL1        0.0133
@<TRIPOS>BOND
     1    14    15    1
     2    15    16   ar
     3    16    17   ar
     4    17    18   ar
     5    18    19   ar
     6    19    20    1
     7    19    21   ar
     8    21    13    1
     9    13    12    1
    10    12     1    1
    11     1     2   ar
    12     2     3   ar
    13     3     4   ar
    14     4     5   ar
    15     5     6   ar
    16     6     7    1
    17     6     8   ar
    18     8     9    1
    19     8    10   ar
    20    10    11   ar
    21    21    15   ar
    22    11     1   ar
    23    11     5   ar
@<TRIPOS>MOLECULE
*****
 21 23 0 0 0
SMALL
GASTEIGER

@<TRIPOS>ATOM
      1 C          63.6048   85.9850   14.8179 C.ar    1  UNL1        0.1733
      2 C          63.2250   85.3579   16.1265 C.ar    1  UNL1        0.0416
      3 C          62.9762   86.2213   17.3276 C.ar    1  UNL1        0.0222
      4 C          63.1073   87.7117   17.2201 C.ar    1  UNL1        0.0813
      5 N          63.4871   88.3387   15.9114 N.ar    1  UNL1       -0.2904
      6 C          63.6908   89.7681   15.5050 C.ar    1  UNL1        0.0567
      7 C          63.5454   90.9670   16.3947 C.3     1  UNL1        0.0517
      8 C          64.0655   89.7882   14.0526 C.ar    1  UNL1        0.0730
      9 C          64.3605   91.0108   13.2350 C.3     1  UNL1        0.0534
     10 N          64.0933   88.3712   13.5615 N.ar    1  UNL1       -0.2284
     11 C          63.7359   87.4754   14.7103 C.ar    1  UNL1        0.1817
     12 O          63.8536   85.1216   13.6167 O.3     1  UNL1       -0.4676
     13 C          62.7053   84.6857   12.7556 C.3     1  UNL1        0.2315
     14 C          64.3227   82.8508   11.0185 C.3     1  UNL1        0.0308
     15 C          63.5626   83.9887   10.4042 C.ar    1  UNL1       -0.0226
     16 C          63.6112   84.2092    8.9212 C.ar    1  UNL1       -0.0045
     17 C          62.8511   85.3471    8.3069 C.ar    1  UNL1       -0.0007
     18 C          62.0425   86.2645    9.1754 C.ar    1  UNL1       -0.0045
     19 C          61.9938   86.0441   10.6583 C.ar    1  UNL1       -0.0226
     20 C          61.1852   86.9615   11.5268 C.3     1  UNL1        0.0308
     21 C          62.7539   84.9062   11.2727 C.ar    1  UNL1        0.0133
@<TRIPOS>BOND
     1    14    15    1
     2    15    16   ar
     3    16    17   ar
     4    17    18   ar
     5    18    19   ar
     6    19    20    1
     7    19    21   ar
     8    21    13    1
     9    13    12    1
    10    12     1    1
    11     1     2   ar
    12     2     3   ar
    13     3     4   ar
    14     4     5   ar
    15     5     6   ar
    16     6     7    1
    17     6     8   ar
    18     8     9    1
    19     8    10   ar
    20    10    11   ar
    21    21    15   ar
    22    11     1   ar
    23    11     5   ar
@<TRIPOS>MOLECULE
*****
 21 23 0 0 0
SMALL
GASTEIGER

@<TRIPOS>ATOM
      1 C          63.7852   87.2890   13.9303 C.ar    1  UNL1        0.1733
      2 C          64.4897   88.2760   14.8132 C.ar    1  UNL1        0.0416
      3 C          64.5801   89.7165   14.4049 C.ar    1  UNL1        0.0222
      4 C          63.9659   90.1700   13.1137 C.ar    1  UNL1        0.0813
      5 N          63.2614   89.1830   12.2308 N.ar    1  UNL1       -0.2904
      6 C          62.5652   89.3352   10.9109 C.ar    1  UNL1        0.0567
      7 C          62.4159   90.6100   10.1347 C.3     1  UNL1        0.0517
      8 C          62.0446   87.9887   10.5035 C.ar    1  UNL1        0.0730
      9 C          61.2832   87.6807    9.2482 C.3     1  UNL1        0.0534
     10 N          62.4190   87.0044   11.5715 N.ar    1  UNL1       -0.2284
     11 C          63.1711   87.7425   12.6391 C.ar    1  UNL1        0.1817
     12 O          63.6948   85.8484   14.3386 O.3     1  UNL1       -0.4676
     13 C          64.2171   84.7767   13.4283 C.3     1  UNL1        0.2315
     14 C          62.5028   83.8090   15.6920 C.3     1  UNL1        0.0308
     15 C          62.6317   82.9867   14.4442 C.ar    1  UNL1       -0.0226
     16 C          61.9034   81.6805   14.3282 C.ar    1  UNL1       -0.0045
     17 C          62.0322   80.8582   13.0803 C.ar    1  UNL1       -0.0007
     18 C          62.8894   81.3420   11.9484 C.ar    1  UNL1       -0.0045
     19 C          63.6177   82.6482   12.0644 C.ar    1  UNL1       -0.0226
     20 C          64.4749   83.1321   10.9325 C.3     1  UNL1        0.0308
     21 C          63.4888   83.4706   13.3123 C.ar    1  UNL1        0.0133
@<TRIPOS>BOND
     1    14    15    1
     2    15    16   ar
     3    16    17   ar
     4    17    18   ar
     5    18    19   ar
     6    19    20    1
     7    19    21   ar
     8    21    13    1
     9    13    12    1
    10    12     1    1
    11     1     2   ar
    12     2     3   ar
    13     3     4   ar
    14     4     5   ar
    15     5     6   ar
    16     6     7    1
    17     6     8   ar
    18     8     9    1
    19     8    10   ar
    20    10    11   ar
    21    21    15   ar
    22    11     1   ar
    23    11     5   ar
