@<TRIPOS>MOLECULE
*****
 37 40 0 0 0
SMALL
GASTEIGER

@<TRIPOS>ATOM
      1 C          63.4154   84.9100   13.3319 C.3     1  UNL1        0.3254
      2 F          64.6664   85.6942   13.0666 F       1  UNL1       -0.1949
      3 F          62.0319   84.3307   13.3247 F       1  UNL1       -0.1949
      4 C          62.7136   85.6597   12.2384 C.ar    1  UNL1        0.1218
      5 C          61.9821   84.9099   11.1649 C.ar    1  UNL1        0.0202
      6 C          61.2803   85.6596   10.0715 C.ar    1  UNL1        0.0029
      7 C          61.3101   87.1591   10.0516 C.ar    1  UNL1        0.0192
      8 C          62.0417   87.9090   11.1252 C.ar    1  UNL1        0.0986
      9 N          62.7434   87.1593   12.2186 N.ar    1  UNL1       -0.2427
     10 C          60.6084   87.9088    8.9583 C.ar    1  UNL1        0.0017
     11 C          60.5841   89.4085    8.9734 C.ar    1  UNL1        0.0032
     12 C          59.8823   90.1583    7.8800 C.ar    1  UNL1        0.0372
     13 C          59.2049   89.4083    6.7715 C.ar    1  UNL1        0.1468
     14 C          59.2293   87.9085    6.7565 C.ar    1  UNL1        0.0372
     15 C          59.9310   87.1588    7.8499 C.ar    1  UNL1        0.0032
     16 O          58.5032   90.1580    5.6782 O.3     1  UNL1       -0.4045
     17 C          59.0977   91.4237    5.1356 C.3     1  UNL1        0.5753
     18 F          59.6923   92.6896    4.5931 F       1  UNL1       -0.1328
     19 F          57.7492   92.0787    5.1858 F       1  UNL1       -0.1328
     20 F          60.4463   90.7688    5.0855 F       1  UNL1       -0.1328
     21 O          64.8190   83.4108   15.5186 O.3     1  UNL1       -0.3755
     22 C          64.1172   84.1604   14.4253 C.3     1  UNL1        0.1932
     23 H          64.6878   82.4579   15.3931 H       1  UNL1        0.2110
     24 C          63.6668   82.8620   13.8242 C.ar    1  UNL1        0.0368
     25 C          62.6601   82.0125   14.5419 C.ar    1  UNL1        0.0028
     26 C          62.2097   80.7141   13.9408 C.ar    1  UNL1        0.0295
     27 C          62.7659   80.2652   12.6220 C.ar    1  UNL1        0.1424
     28 F          62.3155   78.9669   12.0210 F       1  UNL1       -0.2041
     29 C          63.7725   81.1147   11.9043 C.ar    1  UNL1        0.0590
     30 C          64.2229   82.4132   12.5054 C.ar    1  UNL1        0.1408
     31 F          65.2295   83.2626   11.7877 F       1  UNL1       -0.2043
     32 C          64.5677   85.4588   15.0264 C.3     1  UNL1        0.1661
     33 N          63.6936   86.1702   16.0163 N.ar    1  UNL1       -0.2271
     34 C          62.7988   85.5200   17.0295 C.ar    1  UNL1        0.1973
     35 N          62.1131   86.6046   17.8062 N.ar    1  UNL1       -0.2007
     36 C          62.5842   87.9252   17.2731 C.ar    1  UNL1        0.2210
     37 N          63.5610   87.6567   16.1669 N.ar    1  UNL1       -0.1451
@<TRIPOS>BOND
     1    21    22    1
     2    22    32    1
     3    32    33    1
     4    33    34   ar
     5    34    35   ar
     6    35    36   ar
     7    36    37   ar
     8    22    24    1
     9    24    25   ar
    10    25    26   ar
    11    26    27   ar
    12    27    28    1
    13    27    29   ar
    14    29    30   ar
    15    30    31    1
    16    22     1    1
    17     1     2    1
    18     1     3    1
    19     1     4    1
    20     4     5   ar
    21     5     6   ar
    22     6     7   ar
    23     7    10    1
    24    10    11   ar
    25    11    12   ar
    26    12    13   ar
    27    13    16    1
    28    16    17    1
    29    17    18    1
    30    17    19    1
    31    17    20    1
    32    13    14   ar
    33    14    15   ar
    34     7     8   ar
    35     8     9   ar
    36    37    33   ar
    37    30    24   ar
    38     9     4   ar
    39    15    10   ar
    40    21    23    1
@<TRIPOS>MOLECULE
*****
 37 40 0 0 0
SMALL
GASTEIGER

@<TRIPOS>ATOM
      1 C          63.4232   84.8233   13.0863 C.3     1  UNL1        0.3254
      2 F          64.6380   84.7416   12.2100 F       1  UNL1       -0.1949
      3 F          62.0694   85.0855   13.6765 F       1  UNL1       -0.1949
      4 C          62.6990   85.5792   12.0119 C.ar    1  UNL1        0.1218
      5 C          62.0950   84.8422   10.8535 C.ar    1  UNL1        0.0202
      6 C          61.3708   85.5981    9.7791 C.ar    1  UNL1        0.0029
      7 C          61.2507   87.0909    9.8632 C.ar    1  UNL1        0.0192
      8 C          61.8547   87.8279   11.0217 C.ar    1  UNL1        0.0986
      9 N          62.5789   87.0720   12.0960 N.ar    1  UNL1       -0.2427
     10 C          60.5265   87.8468    8.7888 C.ar    1  UNL1        0.0017
     11 C          60.4691   89.3449    8.8345 C.ar    1  UNL1        0.0032
     12 C          59.7449   90.1009    7.7602 C.ar    1  UNL1        0.0372
     13 C          59.0782   89.3586    6.6401 C.ar    1  UNL1        0.1468
     14 C          59.1356   87.8603    6.5945 C.ar    1  UNL1        0.0372
     15 C          59.8598   87.1044    7.6688 C.ar    1  UNL1        0.0032
     16 O          58.3540   90.1144    5.5658 O.3     1  UNL1       -0.4045
     17 C          58.8653   91.4502    5.1139 C.3     1  UNL1        0.5753
     18 F          59.3766   92.7860    4.6620 F       1  UNL1       -0.1328
     19 F          60.2514   90.8858    5.0139 F       1  UNL1       -0.1328
     20 F          57.4791   92.0146    5.2139 F       1  UNL1       -0.1328
     21 O          64.8716   83.3117   15.2350 O.3     1  UNL1       -0.3755
     22 C          64.1474   84.0675   14.1606 C.3     1  UNL1        0.1932
     23 H          64.8497   83.8215   16.0599 H       1  UNL1        0.2110
     24 C          63.8423   85.1639   15.1377 C.ar    1  UNL1        0.0368
     25 C          64.4742   86.5142   14.9714 C.ar    1  UNL1        0.0028
     26 C          64.1690   87.6106   15.9484 C.ar    1  UNL1        0.0295
     27 C          63.2319   87.3568   17.0919 C.ar    1  UNL1        0.1424
     28 F          62.9268   88.4532   18.0690 F       1  UNL1       -0.2041
     29 C          62.6000   86.0067   17.2583 C.ar    1  UNL1        0.0590
     30 C          62.9052   84.9102   16.2812 C.ar    1  UNL1        0.1408
     31 F          62.2733   83.5600   16.4475 F       1  UNL1       -0.2043
     32 C          64.4527   82.9710   13.1835 C.3     1  UNL1        0.1661
     33 N          63.6114   81.7293   13.1628 N.ar    1  UNL1       -0.2271
     34 C          63.0932   81.0358   11.9378 C.ar    1  UNL1        0.1973
     35 N          62.3022   79.8409   12.3813 N.ar    1  UNL1       -0.2007
     36 C          62.3316   79.7961   13.8804 C.ar    1  UNL1        0.2210
     37 N          63.1407   80.9631   14.3633 N.ar    1  UNL1       -0.1451
@<TRIPOS>BOND
     1    21    22    1
     2    22    32    1
     3    32    33    1
     4    33    34   ar
     5    34    35   ar
     6    35    36   ar
     7    36    37   ar
     8    22    24    1
     9    24    25   ar
    10    25    26   ar
    11    26    27   ar
    12    27    28    1
    13    27    29   ar
    14    29    30   ar
    15    30    31    1
    16    22     1    1
    17     1     2    1
    18     1     3    1
    19     1     4    1
    20     4     5   ar
    21     5     6   ar
    22     6     7   ar
    23     7    10    1
    24    10    11   ar
    25    11    12   ar
    26    12    13   ar
    27    13    16    1
    28    16    17    1
    29    17    18    1
    30    17    19    1
    31    17    20    1
    32    13    14   ar
    33    14    15   ar
    34     7     8   ar
    35     8     9   ar
    36    37    33   ar
    37    30    24   ar
    38     9     4   ar
    39    15    10   ar
    40    21    23    1
@<TRIPOS>MOLECULE
*****
 37 40 0 0 0
SMALL
GASTEIGER

@<TRIPOS>ATOM
      1 C          61.5846   87.7773   10.5079 C.3     1  UNL1        0.3254
      2 F          60.5820   87.7348   11.6229 F       1  UNL1       -0.1949
      3 F          62.7683   88.0378    9.6242 F       1  UNL1       -0.1949
      4 C          62.4562   88.6833   11.3262 C.ar    1  UNL1        0.1218
      5 C          62.7133   90.0891   10.8707 C.ar    1  UNL1        0.0202
      6 C          63.5849   90.9952   11.6890 C.ar    1  UNL1        0.0029
      7 C          64.1994   90.4953   12.9628 C.ar    1  UNL1        0.0192
      8 C          63.9422   89.0894   13.4183 C.ar    1  UNL1        0.0986
      9 N          63.0707   88.1835   12.6000 N.ar    1  UNL1       -0.2427
     10 C          65.0709   91.4012   13.7811 C.ar    1  UNL1        0.0017
     11 C          65.0220   91.3372   15.2789 C.ar    1  UNL1        0.0032
     12 C          65.8935   92.2431   16.0972 C.ar    1  UNL1        0.0372
     13 C          66.8140   93.2132   15.4177 C.ar    1  UNL1        0.1468
     14 C          66.8629   93.2772   13.9198 C.ar    1  UNL1        0.0372
     15 C          65.9914   92.3713   13.1016 C.ar    1  UNL1        0.0032
     16 O          67.6856   94.1191   16.2360 O.3     1  UNL1       -0.4045
     17 C          69.1580   94.1938   15.9597 C.3     1  UNL1        0.5753
     18 F          70.6305   94.2685   15.6835 F       1  UNL1       -0.1328
     19 F          69.2184   92.6973   15.8771 F       1  UNL1       -0.1328
     20 F          69.0976   95.6904   16.0424 F       1  UNL1       -0.1328
     21 O          59.8415   85.9653    8.8715 O.3     1  UNL1       -0.3755
     22 C          60.7131   86.8713    9.6897 C.3     1  UNL1        0.1932
     23 H          60.2743   85.1029    8.7726 H       1  UNL1        0.2110
     24 C          61.7242   85.7723    9.8296 C.ar    1  UNL1        0.0368
     25 C          61.9973   85.1714   11.1767 C.ar    1  UNL1        0.0028
     26 C          63.0084   84.0723   11.3166 C.ar    1  UNL1        0.0295
     27 C          63.7465   83.5741   10.1095 C.ar    1  UNL1        0.1424
     28 F          64.7576   82.4750   10.2494 F       1  UNL1       -0.2041
     29 C          63.4734   84.1749    8.7625 C.ar    1  UNL1        0.0590
     30 C          62.4622   85.2740    8.6225 C.ar    1  UNL1        0.1408
     31 F          62.1891   85.8748    7.2756 F       1  UNL1       -0.2043
     32 C          59.7018   87.9704    9.5498 C.3     1  UNL1        0.1661
     33 N          59.5800   88.7171    8.2546 N.ar    1  UNL1       -0.2271
     34 C          60.1945   90.0497    7.9439 C.ar    1  UNL1        0.1973
     35 N          59.8166   90.4184    6.5399 N.ar    1  UNL1       -0.2007
     36 C          58.9686   89.3136    5.9829 C.ar    1  UNL1        0.2210
     37 N          58.8224   88.2621    7.0426 N.ar    1  UNL1       -0.1451
@<TRIPOS>BOND
     1    21    22    1
     2    22    32    1
     3    32    33    1
     4    33    34   ar
     5    34    35   ar
     6    35    36   ar
     7    36    37   ar
     8    22    24    1
     9    24    25   ar
    10    25    26   ar
    11    26    27   ar
    12    27    28    1
    13    27    29   ar
    14    29    30   ar
    15    30    31    1
    16    22     1    1
    17     1     2    1
    18     1     3    1
    19     1     4    1
    20     4     5   ar
    21     5     6   ar
    22     6     7   ar
    23     7    10    1
    24    10    11   ar
    25    11    12   ar
    26    12    13   ar
    27    13    16    1
    28    16    17    1
    29    17    18    1
    30    17    19    1
    31    17    20    1
    32    13    14   ar
    33    14    15   ar
    34     7     8   ar
    35     8     9   ar
    36    37    33   ar
    37    30    24   ar
    38     9     4   ar
    39    15    10   ar
    40    21    23    1
@<TRIPOS>MOLECULE
*****
 37 40 0 0 0
SMALL
GASTEIGER

@<TRIPOS>ATOM
      1 C          61.9544   87.6766   10.5480 C.3     1  UNL1        0.3254
      2 F          62.4487   88.3665    9.3111 F       1  UNL1       -0.1949
      3 F          61.6770   87.2288   11.9524 F       1  UNL1       -0.1949
      4 C          62.7901   88.5921   11.3926 C.ar    1  UNL1        0.1218
      5 C          63.1145   89.9735   10.9063 C.ar    1  UNL1        0.0202
      6 C          63.9503   90.8890   11.7509 C.ar    1  UNL1        0.0029
      7 C          64.4617   90.4231   13.0819 C.ar    1  UNL1        0.0192
      8 C          64.1372   89.0416   13.5682 C.ar    1  UNL1        0.0986
      9 N          63.3015   88.1262   12.7236 N.ar    1  UNL1       -0.2427
     10 C          65.2974   91.3385   13.9265 C.ar    1  UNL1        0.0017
     11 C          65.0197   91.4660   15.3950 C.ar    1  UNL1        0.0032
     12 C          65.8554   92.3815   16.2397 C.ar    1  UNL1        0.0372
     13 C          66.9689   93.1694   15.6159 C.ar    1  UNL1        0.1468
     14 C          67.2467   93.0419   14.1473 C.ar    1  UNL1        0.0372
     15 C          66.4109   92.1265   13.3026 C.ar    1  UNL1        0.0032
     16 O          67.8047   94.0849   16.4605 O.3     1  UNL1       -0.4045
     17 C          69.2598   94.2729   16.1487 C.3     1  UNL1        0.5753
     18 F          70.7150   94.4609   15.8369 F       1  UNL1       -0.1328
     19 F          69.4254   92.7872   16.0255 F       1  UNL1       -0.1328
     20 F          69.0942   95.7587   16.2719 F       1  UNL1       -0.1328
     21 O          60.2829   85.8457    8.8587 O.3     1  UNL1       -0.3755
     22 C          61.1186   86.7611    9.7033 C.3     1  UNL1        0.1932
     23 H          60.6464   84.9472    8.8987 H       1  UNL1        0.2110
     24 C          62.0013   85.6082   10.0796 C.ar    1  UNL1        0.0368
     25 C          61.9073   85.0081   11.4512 C.ar    1  UNL1        0.0028
     26 C          62.7899   83.8551   11.8274 C.ar    1  UNL1        0.0295
     27 C          63.7666   83.3023   10.8322 C.ar    1  UNL1        0.1424
     28 F          64.6492   82.1493   11.2085 F       1  UNL1       -0.2041
     29 C          63.8606   83.9023    9.4607 C.ar    1  UNL1        0.0590
     30 C          62.9779   85.0553    9.0844 C.ar    1  UNL1        0.1408
     31 F          63.0720   85.6554    7.7129 F       1  UNL1       -0.2043
     32 C          60.2359   87.9141    9.3270 C.3     1  UNL1        0.1661
     33 N          59.7666   88.8741   10.3796 N.ar    1  UNL1       -0.2271
     34 C          59.7206   90.3681   10.2530 C.ar    1  UNL1        0.1973
     35 N          59.1864   90.9260   11.5388 N.ar    1  UNL1       -0.2007
     36 C          58.9023   89.7769   12.4602 C.ar    1  UNL1        0.2210
     37 N          59.2609   88.5088   11.7437 N.ar    1  UNL1       -0.1451
@<TRIPOS>BOND
     1    21    22    1
     2    22    32    1
     3    32    33    1
     4    33    34   ar
     5    34    35   ar
     6    35    36   ar
     7    36    37   ar
     8    22    24    1
     9    24    25   ar
    10    25    26   ar
    11    26    27   ar
    12    27    28    1
    13    27    29   ar
    14    29    30   ar
    15    30    31    1
    16    22     1    1
    17     1     2    1
    18     1     3    1
    19     1     4    1
    20     4     5   ar
    21     5     6   ar
    22     6     7   ar
    23     7    10    1
    24    10    11   ar
    25    11    12   ar
    26    12    13   ar
    27    13    16    1
    28    16    17    1
    29    17    18    1
    30    17    19    1
    31    17    20    1
    32    13    14   ar
    33    14    15   ar
    34     7     8   ar
    35     8     9   ar
    36    37    33   ar
    37    30    24   ar
    38     9     4   ar
    39    15    10   ar
    40    21    23    1
