@<TRIPOS>MOLECULE
*****
 28 31 0 0 0
SMALL
GASTEIGER

@<TRIPOS>ATOM
      1 N          64.2761   90.3967   13.7285 N.ar    1  UNL1       -0.3048
      2 C          65.3091   91.4733   13.8823 C.ar    1  UNL1        0.0833
      3 C          65.3516   92.2606   12.6062 C.ar    1  UNL1        0.0580
      4 C          64.3448   91.6705   11.6638 C.ar    1  UNL1        0.0207
      5 C          63.9474   92.0333   10.2636 C.ar    1  UNL1        0.0016
      6 C          62.8853   91.2442    9.5572 C.ar    1  UNL1        0.0001
      7 C          62.2206   90.0922   10.2508 C.ar    1  UNL1        0.0015
      8 C          62.6180   89.7294   11.6509 C.ar    1  UNL1        0.0175
      9 C          63.6801   90.5185   12.3574 C.ar    1  UNL1        0.0641
     10 C          63.1606   87.3380   16.8351 C.ar    1  UNL1        0.0141
     11 C          62.8189   88.7829   17.0485 C.ar    1  UNL1        0.0026
     12 C          63.1907   89.8024   16.0130 C.ar    1  UNL1        0.0176
     13 C          63.9043   89.3772   14.7641 C.ar    1  UNL1        0.0640
     14 C          64.2460   87.9322   14.5506 C.ar    1  UNL1        0.0176
     15 C          63.8742   86.9127   15.5862 C.ar    1  UNL1        0.0026
     16 O          62.7657   86.6975   19.3217 O.co2   1  UNL1       -0.5446
     17 C          62.7888   86.3185   17.8706 C.2     1  UNL1        0.0729
     18 O          62.4402   84.9200   17.4550 O.co2   1  UNL1       -0.5446
     19 C          66.2442   93.4322   12.3224 C.2     1  UNL1        0.2000
     20 O          66.4896   94.4627   13.3842 O.2     1  UNL1       -0.2864
     21 C          66.8914   93.5733   10.9764 C.ar    1  UNL1        0.0770
     22 C          67.9518   92.6025   10.5487 C.ar    1  UNL1        0.1440
     23 F          68.3650   91.4906   11.4668 F       1  UNL1       -0.2040
     24 C          68.5989   92.7435    9.2029 C.ar    1  UNL1        0.0298
     25 C          68.1857   93.8555    8.2848 C.ar    1  UNL1        0.0032
     26 C          67.1253   94.8263    8.7126 C.ar    1  UNL1        0.0116
     27 C          66.4781   94.6853   10.0584 C.ar    1  UNL1        0.0629
     28 CL         65.4177   95.6561   10.4862 Cl      1  UNL1       -0.0821
@<TRIPOS>UNITY_ATOM_ATTR
16 1
charge -1
@<TRIPOS>BOND
     1    16    17   ar
     2    17    18   ar
     3    17    10    1
     4    10    11   ar
     5    11    12   ar
     6    12    13   ar
     7    13     1    1
     8     1     2   ar
     9     2     3   ar
    10     3    19    1
    11    19    20    2
    12    19    21    1
    13    21    22   ar
    14    22    23    1
    15    22    24   ar
    16    24    25   ar
    17    25    26   ar
    18    26    27   ar
    19    27    28    1
    20     3     4   ar
    21     4     5   ar
    22     5     6   ar
    23     6     7   ar
    24     7     8   ar
    25     8     9   ar
    26    13    14   ar
    27    14    15   ar
    28    15    10   ar
    29     9     1   ar
    30    27    21   ar
    31     9     4   ar
@<TRIPOS>MOLECULE
*****
 28 31 0 0 0
SMALL
GASTEIGER

@<TRIPOS>ATOM
      1 N          64.4263   90.5059   13.8301 N.ar    1  UNL1       -0.3048
      2 C          65.4747   91.5569   14.0446 C.ar    1  UNL1        0.0833
      3 C          65.5694   92.3792   12.7937 C.ar    1  UNL1        0.0580
      4 C          64.5796   91.8363   11.8060 C.ar    1  UNL1        0.0207
      5 C          64.2303   92.2466   10.4062 C.ar    1  UNL1        0.0016
      6 C          63.1744   91.4991    9.6469 C.ar    1  UNL1        0.0001
      7 C          62.4679   90.3413   10.2875 C.ar    1  UNL1        0.0015
      8 C          62.8172   89.9310   11.6874 C.ar    1  UNL1        0.0175
      9 C          63.8730   90.6785   12.4466 C.ar    1  UNL1        0.0641
     10 C          63.1625   87.3829   16.8135 C.ar    1  UNL1        0.0141
     11 C          63.8750   86.9759   15.5579 C.ar    1  UNL1        0.0026
     12 C          64.2963   88.0168   14.5635 C.ar    1  UNL1        0.0176
     13 C          64.0050   89.4649   14.8246 C.ar    1  UNL1        0.0640
     14 C          63.2924   89.8720   16.0802 C.ar    1  UNL1        0.0176
     15 C          62.8712   88.8310   17.0747 C.ar    1  UNL1        0.0026
     16 O          62.6429   86.6914   19.2633 O.co2   1  UNL1       -0.5446
     17 C          62.7412   86.3419   17.8079 C.2     1  UNL1        0.0729
     18 O          62.4183   84.9516   17.3470 O.co2   1  UNL1       -0.5446
     19 C          66.4921   93.5405   12.5696 C.2     1  UNL1        0.2000
     20 O          67.1112   94.2434   13.7411 O.2     1  UNL1       -0.2864
     21 C          66.7956   93.9988   11.1739 C.ar    1  UNL1        0.0770
     22 C          66.2937   95.3290   10.6955 C.ar    1  UNL1        0.1440
     23 F          65.4883   96.2007   11.6129 F       1  UNL1       -0.2040
     24 C          66.5971   95.7874    9.2999 C.ar    1  UNL1        0.0298
     25 C          67.4025   94.9156    8.3827 C.ar    1  UNL1        0.0032
     26 C          67.9044   93.5855    8.8610 C.ar    1  UNL1        0.0116
     27 C          67.6009   93.1271   10.2566 C.ar    1  UNL1        0.0629
     28 CL         68.1028   91.7969   10.7350 Cl      1  UNL1       -0.0821
@<TRIPOS>UNITY_ATOM_ATTR
16 1
charge -1
@<TRIPOS>BOND
     1    16    17   ar
     2    17    18   ar
     3    17    10    1
     4    10    11   ar
     5    11    12   ar
     6    12    13   ar
     7    13     1    1
     8     1     2   ar
     9     2     3   ar
    10     3    19    1
    11    19    20    2
    12    19    21    1
    13    21    22   ar
    14    22    23    1
    15    22    24   ar
    16    24    25   ar
    17    25    26   ar
    18    26    27   ar
    19    27    28    1
    20     3     4   ar
    21     4     5   ar
    22     5     6   ar
    23     6     7   ar
    24     7     8   ar
    25     8     9   ar
    26    13    14   ar
    27    14    15   ar
    28    15    10   ar
    29     9     1   ar
    30    27    21   ar
    31     9     4   ar
@<TRIPOS>MOLECULE
*****
 28 31 0 0 0
SMALL
GASTEIGER

@<TRIPOS>ATOM
      1 N          63.3502   90.4459   11.4952 N.ar    1  UNL1       -0.3048
      2 C          64.1981   91.5599   10.9566 C.ar    1  UNL1        0.0833
      3 C          64.9117   92.1989   12.1109 C.ar    1  UNL1        0.0580
      4 C          64.5049   91.4798   13.3629 C.ar    1  UNL1        0.0207
      5 C          64.8885   91.6716   14.8002 C.ar    1  UNL1        0.0016
      6 C          64.3071   90.7800   15.8570 C.ar    1  UNL1        0.0001
      7 C          63.3420   89.6966   15.4765 C.ar    1  UNL1        0.0015
      8 C          62.9583   89.5048   14.0391 C.ar    1  UNL1        0.0175
      9 C          63.5398   90.3964   12.9823 C.ar    1  UNL1        0.0641
     10 C          60.7025   87.7292    9.0745 C.ar    1  UNL1        0.0141
     11 C          60.4963   89.2142    9.0277 C.ar    1  UNL1        0.0026
     12 C          61.3789   90.1198    9.8346 C.ar    1  UNL1        0.0176
     13 C          62.4676   89.5404   10.6883 C.ar    1  UNL1        0.0640
     14 C          62.6738   88.0553   10.7352 C.ar    1  UNL1        0.0176
     15 C          61.7912   87.1497    9.9283 C.ar    1  UNL1        0.0026
     16 O          58.3475   87.0960    8.1785 O.co2   1  UNL1       -0.5446
     17 C          59.8199   86.8237    8.2677 C.2     1  UNL1        0.0729
     18 O          60.4097   85.6459    7.5500 O.co2   1  UNL1       -0.5446
     19 C          65.8649   93.3541   12.0278 C.2     1  UNL1        0.2000
     20 O          66.0698   94.2445   13.2174 O.2     1  UNL1       -0.2864
     21 C          66.6133   93.6190   10.7550 C.ar    1  UNL1        0.0770
     22 C          67.6906   92.6758   10.3082 C.ar    1  UNL1        0.1440
     23 F          68.0196   91.4677   11.1342 F       1  UNL1       -0.2040
     24 C          68.4390   92.9406    9.0355 C.ar    1  UNL1        0.0298
     25 C          68.1099   94.1487    8.2096 C.ar    1  UNL1        0.0032
     26 C          67.0325   95.0919    8.6563 C.ar    1  UNL1        0.0116
     27 C          66.2842   94.8271    9.9290 C.ar    1  UNL1        0.0629
     28 CL         65.2068   95.7703   10.3758 Cl      1  UNL1       -0.0821
@<TRIPOS>UNITY_ATOM_ATTR
16 1
charge -1
@<TRIPOS>BOND
     1    16    17   ar
     2    17    18   ar
     3    17    10    1
     4    10    11   ar
     5    11    12   ar
     6    12    13   ar
     7    13     1    1
     8     1     2   ar
     9     2     3   ar
    10     3    19    1
    11    19    20    2
    12    19    21    1
    13    21    22   ar
    14    22    23    1
    15    22    24   ar
    16    24    25   ar
    17    25    26   ar
    18    26    27   ar
    19    27    28    1
    20     3     4   ar
    21     4     5   ar
    22     5     6   ar
    23     6     7   ar
    24     7     8   ar
    25     8     9   ar
    26    13    14   ar
    27    14    15   ar
    28    15    10   ar
    29     9     1   ar
    30    27    21   ar
    31     9     4   ar
@<TRIPOS>MOLECULE
*****
 28 31 0 0 0
SMALL
GASTEIGER

@<TRIPOS>ATOM
      1 N          62.4190   86.7287   11.3300 N.ar    1  UNL1       -0.3048
      2 C          63.1284   87.9282   11.8849 C.ar    1  UNL1        0.0833
      3 C          62.6299   89.1402   11.1551 C.ar    1  UNL1        0.0580
      4 C          61.6125   88.6898   10.1492 C.ar    1  UNL1        0.0207
      5 C          60.7879   89.4442    9.1488 C.ar    1  UNL1        0.0016
      6 C          59.8329   88.7082    8.2564 C.ar    1  UNL1        0.0001
      7 C          59.7026   87.2178    8.3645 C.ar    1  UNL1        0.0015
      8 C          60.5272   86.4634    9.3649 C.ar    1  UNL1        0.0175
      9 C          61.4821   87.1994   10.2573 C.ar    1  UNL1        0.0641
     10 C          62.9995   82.4664   12.6513 C.ar    1  UNL1        0.0141
     11 C          62.6664   83.5255   13.6599 C.ar    1  UNL1        0.0026
     12 C          62.4729   84.9463   13.2194 C.ar    1  UNL1        0.0176
     13 C          62.6125   85.3079   11.7705 C.ar    1  UNL1        0.0640
     14 C          62.9456   84.2487   10.7618 C.ar    1  UNL1        0.0176
     15 C          63.1391   82.8280   11.2023 C.ar    1  UNL1        0.0026
     16 O          62.6926   79.9203   12.2355 O.co2   1  UNL1       -0.5446
     17 C          63.1930   81.0456   13.0918 C.2     1  UNL1        0.0729
     18 O          63.8868   80.7502   14.3884 O.co2   1  UNL1       -0.5446
     19 C          63.0714   90.5544   11.3900 C.2     1  UNL1        0.2000
     20 O          62.7537   91.6169   10.3801 O.2     1  UNL1       -0.2864
     21 C          63.8306   90.9061   12.6351 C.ar    1  UNL1        0.0770
     22 C          63.2986   90.5008   13.9777 C.ar    1  UNL1        0.1440
     23 F          62.0073   89.7437   14.0752 F       1  UNL1       -0.2040
     24 C          64.0577   90.8524   15.2227 C.ar    1  UNL1        0.0298
     25 C          65.3489   91.6095   15.1250 C.ar    1  UNL1        0.0032
     26 C          65.8810   92.0149   13.7824 C.ar    1  UNL1        0.0116
     27 C          65.1219   91.6632   12.5374 C.ar    1  UNL1        0.0629
     28 CL         65.6539   92.0686   11.1948 Cl      1  UNL1       -0.0821
@<TRIPOS>UNITY_ATOM_ATTR
16 1
charge -1
@<TRIPOS>BOND
     1    16    17   ar
     2    17    18   ar
     3    17    10    1
     4    10    11   ar
     5    11    12   ar
     6    12    13   ar
     7    13     1    1
     8     1     2   ar
     9     2     3   ar
    10     3    19    1
    11    19    20    2
    12    19    21    1
    13    21    22   ar
    14    22    23    1
    15    22    24   ar
    16    24    25   ar
    17    25    26   ar
    18    26    27   ar
    19    27    28    1
    20     3     4   ar
    21     4     5   ar
    22     5     6   ar
    23     6     7   ar
    24     7     8   ar
    25     8     9   ar
    26    13    14   ar
    27    14    15   ar
    28    15    10   ar
    29     9     1   ar
    30    27    21   ar
    31     9     4   ar
@<TRIPOS>MOLECULE
*****
 28 31 0 0 0
SMALL
GASTEIGER

@<TRIPOS>ATOM
      1 N          62.9336   87.1151   12.2610 N.ar    1  UNL1       -0.3048
      2 C          63.6510   88.1582   13.0656 C.ar    1  UNL1        0.0833
      3 C          63.2601   89.5047   12.5324 C.ar    1  UNL1        0.0580
      4 C          62.3012   89.2937   11.3984 C.ar    1  UNL1        0.0207
      5 C          61.5857   90.2556   10.4969 C.ar    1  UNL1        0.0016
      6 C          60.6685   89.7407    9.4276 C.ar    1  UNL1        0.0001
      7 C          60.4667   88.2638    9.2598 C.ar    1  UNL1        0.0015
      8 C          61.1822   87.3019   10.1614 C.ar    1  UNL1        0.0175
      9 C          62.0994   87.8169   11.2306 C.ar    1  UNL1        0.0641
     10 C          63.2318   82.6621   12.8373 C.ar    1  UNL1        0.0141
     11 C          62.7776   83.2192   11.5208 C.ar    1  UNL1        0.0026
     12 C          62.6783   84.7036   11.3287 C.ar    1  UNL1        0.0176
     13 C          63.0330   85.6308   12.4531 C.ar    1  UNL1        0.0640
     14 C          63.4872   85.0736   13.7697 C.ar    1  UNL1        0.0176
     15 C          63.5866   83.5892   13.9617 C.ar    1  UNL1        0.0026
     16 O          63.8992   80.6226   14.3018 O.co2   1  UNL1       -0.5446
     17 C          63.3312   81.1777   13.0293 C.2     1  UNL1        0.0729
     18 O          62.8626   80.2486   11.9490 O.co2   1  UNL1       -0.5446
     19 C          63.7433   90.8295   13.0436 C.2     1  UNL1        0.2000
     20 O          63.0486   91.4861   14.1995 O.2     1  UNL1       -0.2864
     21 C          64.9213   91.4979   12.3987 C.ar    1  UNL1        0.0770
     22 C          64.7971   92.0662   11.0161 C.ar    1  UNL1        0.1440
     23 F          63.4948   91.9662   10.2784 F       1  UNL1       -0.2040
     24 C          65.9749   92.7345   10.3712 C.ar    1  UNL1        0.0298
     25 C          67.2771   92.8345   11.1090 C.ar    1  UNL1        0.0032
     26 C          67.4014   92.2661   12.4916 C.ar    1  UNL1        0.0116
     27 C          66.2235   91.5978   13.1365 C.ar    1  UNL1        0.0629
     28 CL         66.3478   91.0295   14.5190 Cl      1  UNL1       -0.0821
@<TRIPOS>UNITY_ATOM_ATTR
16 1
charge -1
@<TRIPOS>BOND
     1    16    17   ar
     2    17    18   ar
     3    17    10    1
     4    10    11   ar
     5    11    12   ar
     6    12    13   ar
     7    13     1    1
     8     1     2   ar
     9     2     3   ar
    10     3    19    1
    11    19    20    2
    12    19    21    1
    13    21    22   ar
    14    22    23    1
    15    22    24   ar
    16    24    25   ar
    17    25    26   ar
    18    26    27   ar
    19    27    28    1
    20     3     4   ar
    21     4     5   ar
    22     5     6   ar
    23     6     7   ar
    24     7     8   ar
    25     8     9   ar
    26    13    14   ar
    27    14    15   ar
    28    15    10   ar
    29     9     1   ar
    30    27    21   ar
    31     9     4   ar
@<TRIPOS>MOLECULE
*****
 28 31 0 0 0
SMALL
GASTEIGER

@<TRIPOS>ATOM
      1 N          61.9408   86.5114   11.2011 N.ar    1  UNL1       -0.3048
      2 C          62.2841   87.7760   11.9312 C.ar    1  UNL1        0.0833
      3 C          61.7391   88.9293   11.1420 C.ar    1  UNL1        0.0580
      4 C          61.0590   88.3775    9.9242 C.ar    1  UNL1        0.0207
      5 C          60.3423   89.0427    8.7867 C.ar    1  UNL1        0.0016
      6 C          59.7504   88.2135    7.6858 C.ar    1  UNL1        0.0001
      7 C          59.8751   86.7192    7.7224 C.ar    1  UNL1        0.0015
      8 C          60.5918   86.0540    8.8598 C.ar    1  UNL1        0.0175
      9 C          61.1837   86.8831    9.9607 C.ar    1  UNL1        0.0641
     10 C          62.9970   82.3354   12.5035 C.ar    1  UNL1        0.0141
     11 C          63.0669   82.7088   11.0524 C.ar    1  UNL1        0.0026
     12 C          62.7148   84.1008   10.6183 C.ar    1  UNL1        0.0176
     13 C          62.2929   85.1194   11.6352 C.ar    1  UNL1        0.0640
     14 C          62.2230   84.7461   13.0864 C.ar    1  UNL1        0.0176
     15 C          62.5751   83.3541   13.5205 C.ar    1  UNL1        0.0026
     16 O          62.8536   79.7652   12.1527 O.co2   1  UNL1       -0.5446
     17 C          63.3491   80.9435   12.9376 C.2     1  UNL1        0.0729
     18 O          64.1966   80.7298   14.1567 O.co2   1  UNL1       -0.5446
     19 C          61.8539   90.3798   11.5066 C.2     1  UNL1        0.2000
     20 O          60.6211   91.2286   11.6038 O.2     1  UNL1       -0.2864
     21 C          63.2018   90.9814   11.7740 C.ar    1  UNL1        0.0770
     22 C          63.9441   91.6779   10.6723 C.ar    1  UNL1        0.1440
     23 F          63.3387   91.7727    9.3031 F       1  UNL1       -0.2040
     24 C          65.2919   92.2796   10.9396 C.ar    1  UNL1        0.0298
     25 C          65.8973   92.1848   12.3087 C.ar    1  UNL1        0.0032
     26 C          65.1549   91.4883   13.4104 C.ar    1  UNL1        0.0116
     27 C          63.8072   90.8866   13.1431 C.ar    1  UNL1        0.0629
     28 CL         63.0648   90.1902   14.2449 Cl      1  UNL1       -0.0821
@<TRIPOS>UNITY_ATOM_ATTR
16 1
charge -1
@<TRIPOS>BOND
     1    16    17   ar
     2    17    18   ar
     3    17    10    1
     4    10    11   ar
     5    11    12   ar
     6    12    13   ar
     7    13     1    1
     8     1     2   ar
     9     2     3   ar
    10     3    19    1
    11    19    20    2
    12    19    21    1
    13    21    22   ar
    14    22    23    1
    15    22    24   ar
    16    24    25   ar
    17    25    26   ar
    18    26    27   ar
    19    27    28    1
    20     3     4   ar
    21     4     5   ar
    22     5     6   ar
    23     6     7   ar
    24     7     8   ar
    25     8     9   ar
    26    13    14   ar
    27    14    15   ar
    28    15    10   ar
    29     9     1   ar
    30    27    21   ar
    31     9     4   ar
@<TRIPOS>MOLECULE
*****
 28 31 0 0 0
SMALL
GASTEIGER

@<TRIPOS>ATOM
      1 N          63.7154   86.8856   14.0919 N.ar    1  UNL1       -0.3048
      2 C          64.0461   88.2721   13.6248 C.ar    1  UNL1        0.0833
      3 C          63.9077   89.2006   14.7947 C.ar    1  UNL1        0.0580
      4 C          63.4914   88.3879   15.9848 C.ar    1  UNL1        0.0207
      5 C          63.2053   88.7659   17.4079 C.ar    1  UNL1        0.0016
      6 C          62.8002   87.7131   18.3966 C.ar    1  UNL1        0.0001
      7 C          62.6814   86.2823   17.9621 C.ar    1  UNL1        0.0015
      8 C          62.9676   85.9043   16.5391 C.ar    1  UNL1        0.0175
      9 C          63.3726   86.9571   15.5504 C.ar    1  UNL1        0.0641
     10 C          63.7464   83.1644   11.5616 C.ar    1  UNL1        0.0141
     11 C          62.8801   84.3266   11.1757 C.ar    1  UNL1        0.0026
     12 C          62.8698   85.5670   12.0192 C.ar    1  UNL1        0.0176
     13 C          63.7257   85.6452   13.2484 C.ar    1  UNL1        0.0640
     14 C          64.5920   84.4830   13.6343 C.ar    1  UNL1        0.0176
     15 C          64.6023   83.2426   12.7909 C.ar    1  UNL1        0.0026
     16 O          62.8170   80.7973   11.0301 O.co2   1  UNL1       -0.5446
     17 C          63.7566   81.9240   10.7182 C.2     1  UNL1        0.0729
     18 O          64.7066   81.8105    9.5629 O.co2   1  UNL1       -0.5446
     19 C          64.1440   90.6818   14.7776 C.2     1  UNL1        0.2000
     20 O          63.6363   91.5354   15.9017 O.2     1  UNL1       -0.2864
     21 C          64.8882   91.3094   13.6364 C.ar    1  UNL1        0.0770
     22 C          64.2024   91.5197   12.3190 C.ar    1  UNL1        0.1440
     23 F          62.7724   91.1023   12.1429 F       1  UNL1       -0.2040
     24 C          64.9464   92.1473   11.1778 C.ar    1  UNL1        0.0298
     25 C          66.3764   92.5646   11.3539 C.ar    1  UNL1        0.0032
     26 C          67.0622   92.3544   12.6713 C.ar    1  UNL1        0.0116
     27 C          66.3181   91.7268   13.8125 C.ar    1  UNL1        0.0629
     28 CL         67.0040   91.5166   15.1299 Cl      1  UNL1       -0.0821
@<TRIPOS>UNITY_ATOM_ATTR
16 1
charge -1
@<TRIPOS>BOND
     1    16    17   ar
     2    17    18   ar
     3    17    10    1
     4    10    11   ar
     5    11    12   ar
     6    12    13   ar
     7    13     1    1
     8     1     2   ar
     9     2     3   ar
    10     3    19    1
    11    19    20    2
    12    19    21    1
    13    21    22   ar
    14    22    23    1
    15    22    24   ar
    16    24    25   ar
    17    25    26   ar
    18    26    27   ar
    19    27    28    1
    20     3     4   ar
    21     4     5   ar
    22     5     6   ar
    23     6     7   ar
    24     7     8   ar
    25     8     9   ar
    26    13    14   ar
    27    14    15   ar
    28    15    10   ar
    29     9     1   ar
    30    27    21   ar
    31     9     4   ar
@<TRIPOS>MOLECULE
*****
 28 31 0 0 0
SMALL
GASTEIGER

@<TRIPOS>ATOM
      1 N          63.7220   86.8732   14.1181 N.ar    1  UNL1       -0.3048
      2 C          64.0533   88.2619   13.6580 C.ar    1  UNL1        0.0833
      3 C          63.9106   89.1854   14.8314 C.ar    1  UNL1        0.0580
      4 C          63.4911   88.3674   16.0167 C.ar    1  UNL1        0.0207
      5 C          63.2003   88.7391   17.4405 C.ar    1  UNL1        0.0016
      6 C          62.7928   87.6818   18.4234 C.ar    1  UNL1        0.0001
      7 C          62.6763   86.2528   17.9825 C.ar    1  UNL1        0.0015
      8 C          62.9672   85.8811   16.5588 C.ar    1  UNL1        0.0175
      9 C          63.3746   86.9384   15.5759 C.ar    1  UNL1        0.0641
     10 C          63.7631   83.1629   11.5721 C.ar    1  UNL1        0.0141
     11 C          64.6051   83.2314   12.8116 C.ar    1  UNL1        0.0026
     12 C          64.5913   84.4681   13.6602 C.ar    1  UNL1        0.0176
     13 C          63.7357   85.6365   13.2694 C.ar    1  UNL1        0.0640
     14 C          62.8937   85.5680   12.0299 C.ar    1  UNL1        0.0176
     15 C          62.9074   84.3313   11.1812 C.ar    1  UNL1        0.0026
     16 O          64.6933   81.8394    9.5391 O.co2   1  UNL1       -0.5446
     17 C          63.7768   81.9261   10.7234 C.2     1  UNL1        0.0729
     18 O          62.8742   80.7762   11.0591 O.co2   1  UNL1       -0.5446
     19 C          64.1460   90.6667   14.8214 C.2     1  UNL1        0.2000
     20 O          63.5410   91.5296   15.8887 O.2     1  UNL1       -0.2864
     21 C          64.9866   91.2853   13.7438 C.ar    1  UNL1        0.0770
     22 C          66.4180   91.6389   14.0193 C.ar    1  UNL1        0.1440
     23 F          67.0089   91.3739   15.3724 F       1  UNL1       -0.2040
     24 C          67.2586   92.2574   12.9419 C.ar    1  UNL1        0.0298
     25 C          66.6676   92.5223   11.5889 C.ar    1  UNL1        0.0032
     26 C          65.2362   92.1687   11.3134 C.ar    1  UNL1        0.0116
     27 C          64.3956   91.5502   12.3908 C.ar    1  UNL1        0.0629
     28 CL         62.9642   91.1966   12.1153 Cl      1  UNL1       -0.0821
@<TRIPOS>UNITY_ATOM_ATTR
16 1
charge -1
@<TRIPOS>BOND
     1    16    17   ar
     2    17    18   ar
     3    17    10    1
     4    10    11   ar
     5    11    12   ar
     6    12    13   ar
     7    13     1    1
     8     1     2   ar
     9     2     3   ar
    10     3    19    1
    11    19    20    2
    12    19    21    1
    13    21    22   ar
    14    22    23    1
    15    22    24   ar
    16    24    25   ar
    17    25    26   ar
    18    26    27   ar
    19    27    28    1
    20     3     4   ar
    21     4     5   ar
    22     5     6   ar
    23     6     7   ar
    24     7     8   ar
    25     8     9   ar
    26    13    14   ar
    27    14    15   ar
    28    15    10   ar
    29     9     1   ar
    30    27    21   ar
    31     9     4   ar
@<TRIPOS>MOLECULE
*****
 28 31 0 0 0
SMALL
GASTEIGER

@<TRIPOS>ATOM
      1 N          64.6425   90.6444   13.9863 N.ar    1  UNL1       -0.3048
      2 C          64.2584   90.8615   12.5527 C.ar    1  UNL1        0.0833
      3 C          64.9777   92.0821   12.0599 C.ar    1  UNL1        0.0580
      4 C          65.8063   92.6193   13.1890 C.ar    1  UNL1        0.0207
      5 C          66.7227   93.8028   13.2868 C.ar    1  UNL1        0.0016
      6 C          67.4319   94.0977   14.5752 C.ar    1  UNL1        0.0001
      7 C          67.2247   93.2091   15.7658 C.ar    1  UNL1        0.0015
      8 C          66.3083   92.0257   15.6680 C.ar    1  UNL1        0.0175
      9 C          65.5991   91.7308   14.3796 C.ar    1  UNL1        0.0641
     10 C          63.1812   87.3180   16.6416 C.ar    1  UNL1        0.0141
     11 C          63.9326   86.9982   15.3833 C.ar    1  UNL1        0.0026
     12 C          64.4197   88.1071   14.4983 C.ar    1  UNL1        0.0176
     13 C          64.1554   89.5356   14.8714 C.ar    1  UNL1        0.0640
     14 C          63.4039   89.8554   16.1297 C.ar    1  UNL1        0.0176
     15 C          62.9169   88.7466   17.0147 C.ar    1  UNL1        0.0026
     16 O          62.5330   86.4413   18.9997 O.co2   1  UNL1       -0.5446
     17 C          62.6941   86.2092   17.5266 C.2     1  UNL1        0.0729
     18 O          62.3682   84.8683   16.9385 O.co2   1  UNL1       -0.5446
     19 C          64.8848   92.6634   10.6803 C.2     1  UNL1        0.2000
     20 O          63.7247   92.3143    9.7959 O.2     1  UNL1       -0.2864
     21 C          65.9520   93.5939   10.1850 C.ar    1  UNL1        0.0770
     22 C          65.6707   95.0626   10.0666 C.ar    1  UNL1        0.1440
     23 F          64.3222   95.6006   10.4434 F       1  UNL1       -0.2040
     24 C          66.7379   95.9931    9.5713 C.ar    1  UNL1        0.0298
     25 C          68.0864   95.4550    9.1945 C.ar    1  UNL1        0.0032
     26 C          68.3677   93.9864    9.3130 C.ar    1  UNL1        0.0116
     27 C          67.3005   93.0558    9.8082 C.ar    1  UNL1        0.0629
     28 CL         67.5819   91.5872    9.9267 Cl      1  UNL1       -0.0821
@<TRIPOS>UNITY_ATOM_ATTR
16 1
charge -1
@<TRIPOS>BOND
     1    16    17   ar
     2    17    18   ar
     3    17    10    1
     4    10    11   ar
     5    11    12   ar
     6    12    13   ar
     7    13     1    1
     8     1     2   ar
     9     2     3   ar
    10     3    19    1
    11    19    20    2
    12    19    21    1
    13    21    22   ar
    14    22    23    1
    15    22    24   ar
    16    24    25   ar
    17    25    26   ar
    18    26    27   ar
    19    27    28    1
    20     3     4   ar
    21     4     5   ar
    22     5     6   ar
    23     6     7   ar
    24     7     8   ar
    25     8     9   ar
    26    13    14   ar
    27    14    15   ar
    28    15    10   ar
    29     9     1   ar
    30    27    21   ar
    31     9     4   ar
