@<TRIPOS>MOLECULE
*****
 27 29 0 0 0
SMALL
GASTEIGER

@<TRIPOS>ATOM
      1 C          62.1369   90.3107   10.9356 C.ar    1  UNL1        0.0527
      2 C          60.6439   90.4323   10.8562 C.ar    1  UNL1        0.1091
      3 N          60.1025   89.1451   10.3085 N.ar    1  UNL1       -0.2035
      4 C          61.2608   88.2280   10.0493 C.ar    1  UNL1        0.2628
      5 S          62.5181   88.9484   10.4369 S.2     1  UNL1       -0.0283
      6 C          64.2902   91.7287   10.6147 C.2     1  UNL1       -0.0064
      7 C          63.0826   91.3661   11.4273 C.2     1  UNL1        0.0052
      8 C          65.2358   92.7841   11.1064 C.3     1  UNL1        0.0939
      9 C          65.7145   92.7589   12.5278 C.3     1  UNL1        0.0262
     10 C          67.5960   94.9706    8.7831 C.3     1  UNL1        0.0946
     11 C          67.1289   93.8901    9.7127 C.2     1  UNL1        0.2232
     12 O          68.0881   92.8350   10.1782 O.2     1  UNL1       -0.2751
     13 N          65.7028   93.8647   10.1768 N.am    1  UNL1       -0.3022
     14 H          65.0732   94.5572    9.8712 H       1  UNL1        0.1497
     15 O          61.1766   86.8351    9.4992 O.3     1  UNL1       -0.4305
     16 C          62.0041   85.7391   10.1025 C.ar    1  UNL1        0.1583
     17 C          61.9532   85.4879   11.5805 C.ar    1  UNL1        0.0416
     18 C          62.7807   84.3919   12.1837 C.ar    1  UNL1        0.0401
     19 C          63.6591   83.5471   11.3091 C.ar    1  UNL1        0.1396
     20 C          63.7099   83.7984    9.8312 C.ar    1  UNL1        0.0514
     21 C          62.8824   84.8943    9.2279 C.ar    1  UNL1        0.0952
     22 CL         62.9332   85.1456    7.7500 Cl      1  UNL1       -0.0790
     23 O          64.4866   82.4511   11.9125 O.3     1  UNL1       -0.4754
     24 C          64.1489   81.9190   13.2737 C.3     1  UNL1        0.2053
     25 C          62.8857   81.1371   13.4812 C.3     1  UNL1        0.0438
     26 C          62.1206   79.8517   13.3706 C.3     1  UNL1        0.0038
     27 C          61.4628   81.0684   13.9511 C.3     1  UNL1        0.0038
@<TRIPOS>BOND
     1    10    11    1
     2    11    12    2
     3    11    13   am
     4    13     8    1
     5     8     9    1
     6     8     6    1
     7     6     7    2
     8     7     1    1
     9     1     2   ar
    10     2     3   ar
    11     3     4   ar
    12     4    15    1
    13    15    16    1
    14    16    17   ar
    15    17    18   ar
    16    18    19   ar
    17    19    23    1
    18    23    24    1
    19    24    25    1
    20    25    26    1
    21    26    27    1
    22    19    20   ar
    23    20    21   ar
    24    21    22    1
    25     4     5   ar
    26     5     1   ar
    27    21    16   ar
    28    27    25    1
    29    13    14    1
@<TRIPOS>MOLECULE
*****
 27 29 0 0 0
SMALL
GASTEIGER

@<TRIPOS>ATOM
      1 C          61.8693   86.7897   10.0134 C.ar    1  UNL1        0.0527
      2 C          60.9342   87.3896    9.0055 C.ar    1  UNL1        0.1091
      3 N          60.7507   88.8384    9.3480 N.ar    1  UNL1       -0.2035
      4 C          61.5723   89.1339   10.5676 C.ar    1  UNL1        0.2628
      5 S          62.2637   87.8678   10.9789 S.2     1  UNL1       -0.0283
      6 C          62.7097   84.7299   11.3553 C.2     1  UNL1       -0.0064
      7 C          62.3292   85.3624   10.0495 C.2     1  UNL1        0.0052
      8 C          63.1696   83.3026   11.3914 C.3     1  UNL1        0.0939
      9 C          64.4868   82.9234   10.7821 C.3     1  UNL1        0.0262
     10 C          61.4576   81.0498   14.1740 C.3     1  UNL1        0.0946
     11 C          62.3148   82.0978   13.5286 C.2     1  UNL1        0.2232
     12 O          63.1746   82.9891   14.3749 O.2     1  UNL1       -0.2751
     13 N          62.3123   82.2545   12.0368 N.am    1  UNL1       -0.3022
     14 H          61.7480   81.6695   11.4813 H       1  UNL1        0.1497
     15 O          61.6832   90.4624   11.2553 O.3     1  UNL1       -0.4305
     16 C          63.0341   91.0333   11.5706 C.ar    1  UNL1        0.1583
     17 C          63.7937   91.7871   10.5196 C.ar    1  UNL1        0.0416
     18 C          65.1444   92.3580   10.8349 C.ar    1  UNL1        0.0401
     19 C          65.7356   92.1750   12.2013 C.ar    1  UNL1        0.1396
     20 C          64.9760   91.4212   13.2524 C.ar    1  UNL1        0.0514
     21 C          63.6252   90.8504   12.9370 C.ar    1  UNL1        0.0952
     22 CL         62.8655   90.0965   13.9881 Cl      1  UNL1       -0.0790
     23 O          67.0864   92.7460   12.5167 O.3     1  UNL1       -0.4754
     24 C          68.0174   92.0079   13.4323 C.3     1  UNL1        0.2053
     25 C          68.0694   92.3577   14.8901 C.3     1  UNL1        0.0438
     26 C          68.8633   92.6245   16.1344 C.3     1  UNL1        0.0038
     27 C          67.3655   92.6967   16.1706 C.3     1  UNL1        0.0038
@<TRIPOS>BOND
     1    10    11    1
     2    11    12    2
     3    11    13   am
     4    13     8    1
     5     8     9    1
     6     8     6    1
     7     6     7    2
     8     7     1    1
     9     1     2   ar
    10     2     3   ar
    11     3     4   ar
    12     4    15    1
    13    15    16    1
    14    16    17   ar
    15    17    18   ar
    16    18    19   ar
    17    19    23    1
    18    23    24    1
    19    24    25    1
    20    25    26    1
    21    26    27    1
    22    19    20   ar
    23    20    21   ar
    24    21    22    1
    25     4     5   ar
    26     5     1   ar
    27    21    16   ar
    28    27    25    1
    29    13    14    1
@<TRIPOS>MOLECULE
*****
 27 29 0 0 0
SMALL
GASTEIGER

@<TRIPOS>ATOM
      1 C          63.9657   87.8892   15.3872 C.ar    1  UNL1        0.0527
      2 C          63.2521   88.5186   16.5469 C.ar    1  UNL1        0.1091
      3 N          63.1083   89.9843   16.2625 N.ar    1  UNL1       -0.2035
      4 C          63.7329   90.2608   14.9271 C.ar    1  UNL1        0.2628
      5 S          64.2628   88.9660   14.3861 S.2     1  UNL1       -0.0283
      6 C          63.9456   85.6869   14.0089 C.2     1  UNL1       -0.0064
      7 C          64.3199   86.4378   15.2523 C.2     1  UNL1        0.0052
      8 C          64.2998   84.2356   13.8741 C.3     1  UNL1        0.0939
      9 C          64.1809   83.3214   15.0574 C.3     1  UNL1        0.0262
     10 C          64.2745   82.5002   10.3051 C.3     1  UNL1        0.0946
     11 C          63.8016   83.0374   11.6233 C.2     1  UNL1        0.2232
     12 O          62.3573   82.9136   12.0089 O.2     1  UNL1       -0.2751
     13 N          64.7728   83.6984   12.5559 N.am    1  UNL1       -0.3022
     14 H          65.7208   83.7796   12.3028 H       1  UNL1        0.1497
     15 O          63.8135   91.5975   14.2512 O.3     1  UNL1       -0.4305
     16 C          64.9163   91.8786   13.2740 C.ar    1  UNL1        0.1583
     17 C          64.6031   92.0405   11.8160 C.ar    1  UNL1        0.0416
     18 C          65.7059   92.3216   10.8388 C.ar    1  UNL1        0.0401
     19 C          67.1217   92.4407   11.3196 C.ar    1  UNL1        0.1396
     20 C          67.4349   92.2788   12.7776 C.ar    1  UNL1        0.0514
     21 C          66.3321   91.9977   13.7547 C.ar    1  UNL1        0.0952
     22 CL         66.6452   91.8358   15.2128 Cl      1  UNL1       -0.0790
     23 O          68.2245   92.7218   10.3423 O.3     1  UNL1       -0.4754
     24 C          67.9437   93.5203    9.1040 C.3     1  UNL1        0.2053
     25 C          67.5234   94.9559    9.2165 C.3     1  UNL1        0.0438
     26 C          67.4420   96.3351    8.6327 C.3     1  UNL1        0.0038
     27 C          66.8769   96.0630    9.9952 C.3     1  UNL1        0.0038
@<TRIPOS>BOND
     1    10    11    1
     2    11    12    2
     3    11    13   am
     4    13     8    1
     5     8     9    1
     6     8     6    1
     7     6     7    2
     8     7     1    1
     9     1     2   ar
    10     2     3   ar
    11     3     4   ar
    12     4    15    1
    13    15    16    1
    14    16    17   ar
    15    17    18   ar
    16    18    19   ar
    17    19    23    1
    18    23    24    1
    19    24    25    1
    20    25    26    1
    21    26    27    1
    22    19    20   ar
    23    20    21   ar
    24    21    22    1
    25     4     5   ar
    26     5     1   ar
    27    21    16   ar
    28    27    25    1
    29    13    14    1
@<TRIPOS>MOLECULE
*****
 27 29 0 0 0
SMALL
GASTEIGER

@<TRIPOS>ATOM
      1 C          61.7532   86.6587   10.3983 C.ar    1  UNL1        0.0527
      2 C          60.4609   87.1301    9.8001 C.ar    1  UNL1        0.1091
      3 N          60.2330   88.5444   10.2446 N.ar    1  UNL1       -0.2035
      4 C          61.3844   88.9472   11.1175 C.ar    1  UNL1        0.2628
      5 S          62.3239   87.7818   11.2125 S.2     1  UNL1       -0.0283
      6 C          62.6766   84.4511   11.4102 C.2     1  UNL1       -0.0064
      7 C          62.3669   85.3024   10.2146 C.2     1  UNL1        0.0052
      8 C          63.2903   83.0948   11.2264 C.3     1  UNL1        0.0939
      9 C          64.5862   82.9522   10.4845 C.3     1  UNL1        0.0262
     10 C          62.1749   80.2539   13.7631 C.3     1  UNL1        0.0946
     11 C          62.8570   81.4676   13.2048 C.2     1  UNL1        0.2232
     12 O          63.7879   82.2677   14.0669 O.2     1  UNL1       -0.2751
     13 N          62.6082   81.8811   11.7846 N.am    1  UNL1       -0.3022
     14 H          61.9972   81.3559   11.2188 H       1  UNL1        0.1497
     15 O          61.5646   90.2812   11.7792 O.3     1  UNL1       -0.4305
     16 C          62.9312   90.8924   11.8750 C.ar    1  UNL1        0.1583
     17 C          63.5364   91.5675   10.6801 C.ar    1  UNL1        0.0416
     18 C          64.9028   92.1786   10.7760 C.ar    1  UNL1        0.0401
     19 C          65.6641   92.1146   12.0669 C.ar    1  UNL1        0.1396
     20 C          65.0589   91.4395   13.2618 C.ar    1  UNL1        0.0514
     21 C          63.6925   90.8284   13.1659 C.ar    1  UNL1        0.0952
     22 CL         63.0872   90.1533   14.3609 Cl      1  UNL1       -0.0790
     23 O          67.0307   92.7258   12.1628 O.3     1  UNL1       -0.4754
     24 C          68.1728   92.1338   11.3914 C.3     1  UNL1        0.2053
     25 C          68.3501   92.4673    9.9396 C.3     1  UNL1        0.0438
     26 C          68.8818   92.1162    8.5817 C.3     1  UNL1        0.0038
     27 C          68.1256   93.3959    8.7832 C.3     1  UNL1        0.0038
@<TRIPOS>BOND
     1    10    11    1
     2    11    12    2
     3    11    13   am
     4    13     8    1
     5     8     9    1
     6     8     6    1
     7     6     7    2
     8     7     1    1
     9     1     2   ar
    10     2     3   ar
    11     3     4   ar
    12     4    15    1
    13    15    16    1
    14    16    17   ar
    15    17    18   ar
    16    18    19   ar
    17    19    23    1
    18    23    24    1
    19    24    25    1
    20    25    26    1
    21    26    27    1
    22    19    20   ar
    23    20    21   ar
    24    21    22    1
    25     4     5   ar
    26     5     1   ar
    27    21    16   ar
    28    27    25    1
    29    13    14    1
@<TRIPOS>MOLECULE
*****
 27 29 0 0 0
SMALL
GASTEIGER

@<TRIPOS>ATOM
      1 C          61.6878   86.3985   10.2979 C.ar    1  UNL1        0.0527
      2 C          60.6616   87.0517    9.4201 C.ar    1  UNL1        0.1091
      3 N          60.4221   88.4382    9.9398 N.ar    1  UNL1       -0.2035
      4 C          61.3002   88.6420   11.1387 C.ar    1  UNL1        0.2628
      5 S          62.0825   87.3814   11.3600 S.2     1  UNL1       -0.0283
      6 C          62.8735   84.3175   11.3048 C.2     1  UNL1       -0.0064
      7 C          62.2250   85.0068   10.1410 C.2     1  UNL1        0.0052
      8 C          63.4107   82.9258   11.1479 C.3     1  UNL1        0.0939
      9 C          64.7173   82.7009   10.4464 C.3     1  UNL1        0.0262
     10 C          62.0284   80.1963   13.6754 C.3     1  UNL1        0.0946
     11 C          62.7978   81.3629   13.1307 C.2     1  UNL1        0.2232
     12 O          63.7240   82.1335   14.0243 O.2     1  UNL1       -0.2751
     13 N          62.6412   81.7591   11.6925 N.am    1  UNL1       -0.3022
     14 H          62.0333   81.2534   11.1060 H       1  UNL1        0.1497
     15 O          61.3817   89.8877   11.9703 O.3     1  UNL1       -0.4305
     16 C          62.7085   90.5469   12.2056 C.ar    1  UNL1        0.1583
     17 C          63.3389   90.4990   13.5658 C.ar    1  UNL1        0.0416
     18 C          64.6656   91.1582   13.8011 C.ar    1  UNL1        0.0401
     19 C          65.3618   91.8652   12.6762 C.ar    1  UNL1        0.1396
     20 C          64.7314   91.9130   11.3160 C.ar    1  UNL1        0.0514
     21 C          63.4047   91.2539   11.0807 C.ar    1  UNL1        0.0952
     22 CL         62.7742   91.3017    9.7204 Cl      1  UNL1       -0.0790
     23 O          66.6886   92.5244   12.9115 O.3     1  UNL1       -0.4754
     24 C          66.8462   93.5161   14.0257 C.3     1  UNL1        0.2053
     25 C          67.7875   93.2290   15.1578 C.3     1  UNL1        0.0438
     26 C          68.9946   93.5970   15.9686 C.3     1  UNL1        0.0038
     27 C          68.2108   92.3639   16.3077 C.3     1  UNL1        0.0038
@<TRIPOS>BOND
     1    10    11    1
     2    11    12    2
     3    11    13   am
     4    13     8    1
     5     8     9    1
     6     8     6    1
     7     6     7    2
     8     7     1    1
     9     1     2   ar
    10     2     3   ar
    11     3     4   ar
    12     4    15    1
    13    15    16    1
    14    16    17   ar
    15    17    18   ar
    16    18    19   ar
    17    19    23    1
    18    23    24    1
    19    24    25    1
    20    25    26    1
    21    26    27    1
    22    19    20   ar
    23    20    21   ar
    24    21    22    1
    25     4     5   ar
    26     5     1   ar
    27    21    16   ar
    28    27    25    1
    29    13    14    1
@<TRIPOS>MOLECULE
*****
 27 29 0 0 0
SMALL
GASTEIGER

@<TRIPOS>ATOM
      1 C          64.3257   90.2501   13.6337 C.ar    1  UNL1        0.0527
      2 C          64.5082   89.0680   14.5389 C.ar    1  UNL1        0.1091
      3 N          63.7465   87.9152   13.9551 N.ar    1  UNL1       -0.2035
      4 C          63.0932   88.3848   12.6892 C.ar    1  UNL1        0.2628
      5 S          63.4511   89.8278   12.4905 S.2     1  UNL1       -0.0283
      6 C          65.5746   92.3243   12.6912 C.2     1  UNL1       -0.0064
      7 C          64.9143   91.6148   13.8361 C.2     1  UNL1        0.0052
      8 C          66.1632   93.6890   12.8936 C.3     1  UNL1        0.0939
      9 C          66.2022   94.6653   11.7555 C.3     1  UNL1        0.0262
     10 C          68.4747   93.7694   16.1185 C.3     1  UNL1        0.0946
     11 C          67.9251   93.3811   14.7780 C.2     1  UNL1        0.2232
     12 O          68.5876   92.2965   13.9813 O.2     1  UNL1       -0.2751
     13 N          66.7129   94.0773   14.2341 N.am    1  UNL1       -0.3022
     14 H          66.2780   94.7892   14.7570 H       1  UNL1        0.1497
     15 O          62.2329   87.5567   11.7814 O.3     1  UNL1       -0.4305
     16 C          62.6282   86.1474   11.4530 C.ar    1  UNL1        0.1583
     17 C          63.0597   85.2154   12.5462 C.ar    1  UNL1        0.0416
     18 C          63.4549   83.8062   12.2178 C.ar    1  UNL1        0.0401
     19 C          63.4188   83.3290   10.7962 C.ar    1  UNL1        0.1396
     20 C          62.9873   84.2610    9.7030 C.ar    1  UNL1        0.0514
     21 C          62.5921   85.6702   10.0314 C.ar    1  UNL1        0.0952
     22 CL         62.1606   86.6023    8.9381 Cl      1  UNL1       -0.0790
     23 O          63.8141   81.9197   10.4679 O.3     1  UNL1       -0.4754
     24 C          63.0188   80.7711   11.0139 C.3     1  UNL1        0.2053
     25 C          62.6628   80.7306   12.4706 C.3     1  UNL1        0.0438
     26 C          61.6562   80.9143   13.5674 C.3     1  UNL1        0.0038
     27 C          63.0527   80.4768   13.8966 C.3     1  UNL1        0.0038
@<TRIPOS>BOND
     1    10    11    1
     2    11    12    2
     3    11    13   am
     4    13     8    1
     5     8     9    1
     6     8     6    1
     7     6     7    2
     8     7     1    1
     9     1     2   ar
    10     2     3   ar
    11     3     4   ar
    12     4    15    1
    13    15    16    1
    14    16    17   ar
    15    17    18   ar
    16    18    19   ar
    17    19    23    1
    18    23    24    1
    19    24    25    1
    20    25    26    1
    21    26    27    1
    22    19    20   ar
    23    20    21   ar
    24    21    22    1
    25     4     5   ar
    26     5     1   ar
    27    21    16   ar
    28    27    25    1
    29    13    14    1
@<TRIPOS>MOLECULE
*****
 27 29 0 0 0
SMALL
GASTEIGER

@<TRIPOS>ATOM
      1 C          62.0560   86.1313   10.4064 C.ar    1  UNL1        0.0527
      2 C          60.8393   86.4450    9.5869 C.ar    1  UNL1        0.1091
      3 N          60.4467   87.8657    9.8652 N.ar    1  UNL1       -0.2035
      4 C          61.4207   88.4301   10.8565 C.ar    1  UNL1        0.2628
      5 S          62.4152   87.3582   11.1911 S.2     1  UNL1       -0.0283
      6 C          62.8284   84.0150   11.7004 C.2     1  UNL1       -0.0064
      7 C          62.7852   84.8209   10.4360 C.2     1  UNL1        0.0052
      8 C          63.5577   82.7045   11.7300 C.3     1  UNL1        0.0939
      9 C          64.4301   82.3580   12.9000 C.3     1  UNL1        0.0262
     10 C          62.7892   79.3795    9.7045 C.3     1  UNL1        0.0946
     11 C          62.9324   80.3434   10.8447 C.2     1  UNL1        0.2232
     12 O          62.5934   79.9100   12.2402 O.2     1  UNL1       -0.2751
     13 N          63.4145   81.7407   10.5897 N.am    1  UNL1       -0.3022
     14 H          63.6370   82.0251    9.6738 H       1  UNL1        0.1497
     15 O          61.4032   89.8220   11.4153 O.3     1  UNL1       -0.4305
     16 C          62.6933   90.5384   11.6846 C.ar    1  UNL1        0.1583
     17 C          63.3832   91.2818   10.5795 C.ar    1  UNL1        0.0416
     18 C          64.6732   91.9982   10.8489 C.ar    1  UNL1        0.0401
     19 C          65.2734   91.9711   12.2233 C.ar    1  UNL1        0.1396
     20 C          64.5834   91.2276   13.3284 C.ar    1  UNL1        0.0514
     21 C          63.2934   90.5113   13.0591 C.ar    1  UNL1        0.0952
     22 CL         62.6034   89.7678   14.1642 Cl      1  UNL1       -0.0790
     23 O          66.5635   92.6875   12.4927 O.3     1  UNL1       -0.4754
     24 C          67.6374   92.0205   13.3000 C.3     1  UNL1        0.2053
     25 C          67.8577   92.4187   14.7293 C.3     1  UNL1        0.0438
     26 C          68.7873   92.8005   15.8429 C.3     1  UNL1        0.0038
     27 C          67.3099   92.7266   16.0914 C.3     1  UNL1        0.0038
@<TRIPOS>BOND
     1    10    11    1
     2    11    12    2
     3    11    13   am
     4    13     8    1
     5     8     9    1
     6     8     6    1
     7     6     7    2
     8     7     1    1
     9     1     2   ar
    10     2     3   ar
    11     3     4   ar
    12     4    15    1
    13    15    16    1
    14    16    17   ar
    15    17    18   ar
    16    18    19   ar
    17    19    23    1
    18    23    24    1
    19    24    25    1
    20    25    26    1
    21    26    27    1
    22    19    20   ar
    23    20    21   ar
    24    21    22    1
    25     4     5   ar
    26     5     1   ar
    27    21    16   ar
    28    27    25    1
    29    13    14    1
@<TRIPOS>MOLECULE
*****
 27 29 0 0 0
SMALL
GASTEIGER

@<TRIPOS>ATOM
      1 C          62.0287   88.1834   11.0237 C.ar    1  UNL1        0.0527
      2 C          62.7182   87.1282   11.8369 C.ar    1  UNL1        0.1091
      3 N          63.5487   87.8157   12.8798 N.ar    1  UNL1       -0.2035
      4 C          63.3725   89.2958   12.7112 C.ar    1  UNL1        0.2628
      5 S          62.4330   89.5230   11.5641 S.2     1  UNL1       -0.0283
      6 C          61.0223   86.5823    9.2422 C.2     1  UNL1       -0.0064
      7 C          61.0982   87.9414    9.8724 C.2     1  UNL1        0.0052
      8 C          60.0918   86.3404    8.0909 C.3     1  UNL1        0.0939
      9 C          58.7454   87.0009    8.0631 C.3     1  UNL1        0.0262
     10 C          62.3454   84.0671    5.7450 C.3     1  UNL1        0.0946
     11 C          61.9294   84.9696    6.8685 C.2     1  UNL1        0.2232
     12 O          62.9350   85.4039    7.8933 O.2     1  UNL1       -0.2751
     13 N          60.5078   85.4378    6.9673 N.am    1  UNL1       -0.3022
     14 H          59.8477   85.1528    6.2947 H       1  UNL1        0.1497
     15 O          64.0217   90.3614   13.5435 O.3     1  UNL1       -0.4305
     16 C          64.7208   91.5102   12.8790 C.ar    1  UNL1        0.1583
     17 C          64.3938   91.8673   11.4593 C.ar    1  UNL1        0.0416
     18 C          65.0929   93.0161   10.7949 C.ar    1  UNL1        0.0401
     19 C          66.1190   93.8078   11.5501 C.ar    1  UNL1        0.1396
     20 C          66.4460   93.4507   12.9698 C.ar    1  UNL1        0.0514
     21 C          65.7469   92.3019   13.6343 C.ar    1  UNL1        0.0952
     22 CL         66.0738   91.9448   15.0540 Cl      1  UNL1       -0.0790
     23 O          66.8182   94.9566   10.8856 O.3     1  UNL1       -0.4754
     24 C          67.6920   94.7131    9.6911 C.3     1  UNL1        0.2053
     25 C          68.2092   93.3336    9.4088 C.3     1  UNL1        0.0438
     26 C          68.5268   91.9444    9.8769 C.3     1  UNL1        0.0038
     27 C          68.7875   92.3336    8.4519 C.3     1  UNL1        0.0038
@<TRIPOS>BOND
     1    10    11    1
     2    11    12    2
     3    11    13   am
     4    13     8    1
     5     8     9    1
     6     8     6    1
     7     6     7    2
     8     7     1    1
     9     1     2   ar
    10     2     3   ar
    11     3     4   ar
    12     4    15    1
    13    15    16    1
    14    16    17   ar
    15    17    18   ar
    16    18    19   ar
    17    19    23    1
    18    23    24    1
    19    24    25    1
    20    25    26    1
    21    26    27    1
    22    19    20   ar
    23    20    21   ar
    24    21    22    1
    25     4     5   ar
    26     5     1   ar
    27    21    16   ar
    28    27    25    1
    29    13    14    1
@<TRIPOS>MOLECULE
*****
 27 29 0 0 0
SMALL
GASTEIGER

@<TRIPOS>ATOM
      1 C          61.2048   88.1757    9.5822 C.ar    1  UNL1        0.0527
      2 C          60.1044   89.1367    9.2417 C.ar    1  UNL1        0.1091
      3 N          60.2413   90.3336   10.1354 N.ar    1  UNL1       -0.2035
      4 C          61.4261   90.1124   11.0282 C.ar    1  UNL1        0.2628
      5 S          62.0216   88.7788   10.6863 S.2     1  UNL1       -0.0283
      6 C          62.7998   86.2048    9.0151 C.2     1  UNL1       -0.0064
      7 C          61.4459   86.8454    8.9326 C.2     1  UNL1        0.0052
      8 C          63.0409   84.8745    8.3655 C.3     1  UNL1        0.0939
      9 C          62.5352   84.6150    6.9774 C.3     1  UNL1        0.0262
     10 C          64.2611   82.4957   11.2984 C.3     1  UNL1        0.0946
     11 C          63.5143   83.5665   10.5598 C.2     1  UNL1        0.2232
     12 O          62.4942   84.4003   11.2769 O.2     1  UNL1       -0.2751
     13 N          63.7877   83.8036    9.1041 N.am    1  UNL1       -0.3022
     14 H          64.4572   83.2564    8.6335 H       1  UNL1        0.1497
     15 O          61.9275   91.0587   12.0785 O.3     1  UNL1       -0.4305
     16 C          63.3906   91.3787   12.1629 C.ar    1  UNL1        0.1583
     17 C          64.0948   91.9850   10.9854 C.ar    1  UNL1        0.0416
     18 C          65.5578   92.3050   11.0699 C.ar    1  UNL1        0.0401
     19 C          66.3166   92.0188   12.3318 C.ar    1  UNL1        0.1396
     20 C          65.6123   91.4126   13.5092 C.ar    1  UNL1        0.0514
     21 C          64.1493   91.0925   13.4248 C.ar    1  UNL1        0.0952
     22 CL         63.4450   90.4863   14.6023 Cl      1  UNL1       -0.0790
     23 O          67.7797   92.3388   12.4162 O.3     1  UNL1       -0.4754
     24 C          68.5701   91.9229   13.6212 C.3     1  UNL1        0.2053
     25 C          68.3758   92.6340   14.9277 C.3     1  UNL1        0.0438
     26 C          68.8131   93.6701   15.9202 C.3     1  UNL1        0.0038
     27 C          67.6022   92.8295   16.1978 C.3     1  UNL1        0.0038
@<TRIPOS>BOND
     1    10    11    1
     2    11    12    2
     3    11    13   am
     4    13     8    1
     5     8     9    1
     6     8     6    1
     7     6     7    2
     8     7     1    1
     9     1     2   ar
    10     2     3   ar
    11     3     4   ar
    12     4    15    1
    13    15    16    1
    14    16    17   ar
    15    17    18   ar
    16    18    19   ar
    17    19    23    1
    18    23    24    1
    19    24    25    1
    20    25    26    1
    21    26    27    1
    22    19    20   ar
    23    20    21   ar
    24    21    22    1
    25     4     5   ar
    26     5     1   ar
    27    21    16   ar
    28    27    25    1
    29    13    14    1
