@<TRIPOS>MOLECULE
*****
 50 53 0 0 0
SMALL
GASTEIGER

@<TRIPOS>ATOM
      1 C          62.9228   86.3341   12.3086 C.3     1  UNL1        0.0942
      2 C          62.7110   88.9030   11.9831 C.2     1  UNL1        0.2404
      3 O          61.2637   88.8328   12.3709 O.2     1  UNL1       -0.2733
      4 N          63.5406   87.6536   11.9520 N.am    1  UNL1       -0.3027
      5 H          64.4905   87.6996   11.6975 H       1  UNL1        0.1495
      6 C          63.3288   90.2225   11.6265 C.3     1  UNL1        0.1496
      7 N          65.2234   91.6778   14.7955 N.am    1  UNL1       -0.2567
      8 C          64.9527   91.9760   16.2405 C.3     1  UNL1        0.1168
      9 C          64.1408   91.0992   13.9335 C.2     1  UNL1        0.3046
     10 O          62.7874   90.8187   14.5164 O.2     1  UNL1       -0.2526
     11 N          64.4115   90.8011   12.4886 N.am    1  UNL1       -0.2824
     12 H          65.2998   90.9852   12.1060 H       1  UNL1        0.1514
     13 C          66.5768   91.9584   14.2126 C.3     1  UNL1        0.1413
     14 C          67.2555   93.4526   10.6952 C.ar    1  UNL1        0.0875
     15 N          67.3667   92.3323   11.6865 N.ar    1  UNL1       -0.2453
     16 C          66.6991   92.7693   12.9567 C.ar    1  UNL1        0.0858
     17 C          66.1752   94.1596   12.7504 C.ar    1  UNL1        0.0530
     18 S          66.5190   94.5819   11.3528 S.2     1  UNL1       -0.0705
     19 C          68.6819   92.3309    8.8359 C.3     1  UNL1        0.0069
     20 C          67.7872   93.4449    9.2927 C.3     1  UNL1        0.0465
     21 C          67.4243   94.5512    8.3469 C.3     1  UNL1        0.0069
     22 C          62.8640   90.9634   10.4079 C.3     1  UNL1        0.0270
     23 C          63.6339   92.1521    9.9138 C.3     1  UNL1        0.0022
     24 C          61.6292   90.5156    9.6836 C.3     1  UNL1        0.0022
     25 C          61.6955   85.8612   11.5874 C.3     1  UNL1        0.0476
     26 C          61.7194   85.6931   10.0970 C.ar    1  UNL1       -0.0205
     27 C          60.5787   86.2020    9.2665 C.ar    1  UNL1       -0.0042
     28 C          60.6026   86.0339    7.7762 C.ar    1  UNL1       -0.0003
     29 C          61.7672   85.3570    7.1164 C.ar    1  UNL1       -0.0000
     30 C          62.9080   84.8482    7.9469 C.ar    1  UNL1       -0.0003
     31 C          62.8840   85.0162    9.4372 C.ar    1  UNL1       -0.0042
     32 C          63.5323   85.4874   13.3865 C.3     1  UNL1        0.0973
     33 N          63.2301   84.0195   13.4481 N.am    1  UNL1       -0.2703
     34 C          62.1402   83.5152   14.3470 C.2     1  UNL1        0.4020
     35 O          61.3527   84.4788   15.1843 O.2     1  UNL1       -0.2264
     36 H          63.7470   83.3870   12.8985 H       1  UNL1        0.1527
     37 O          61.8380   82.0472   14.4086 O.3     1  UNL1       -0.4291
     38 C          62.8653   81.0505   13.9601 C.3     1  UNL1        0.2447
     39 C          62.8819   80.5797   12.5360 C.ar    1  UNL1        0.0714
     40 C          62.6000   79.1836   12.0656 C.ar    1  UNL1        0.1053
     41 N          62.7272   79.1634   10.5711 N.ar    1  UNL1       -0.2350
     42 C          63.0877   80.5471   10.1179 C.ar    1  UNL1        0.1343
     43 S          63.1833   81.4224   11.3323 S.2     1  UNL1       -0.0652
     44 C          64.4440   86.1087   14.4027 C.3     1  UNL1        0.0477
     45 C          63.8777   86.6777   15.6698 C.ar    1  UNL1       -0.0205
     46 C          63.4892   85.7641   16.7943 C.ar    1  UNL1       -0.0042
     47 C          62.9229   86.3331   18.0614 C.ar    1  UNL1       -0.0003
     48 C          62.7452   87.8157   18.2041 C.ar    1  UNL1       -0.0000
     49 C          63.1337   88.7293   17.0797 C.ar    1  UNL1       -0.0003
     50 C          63.7000   88.1603   15.8125 C.ar    1  UNL1       -0.0042
@<TRIPOS>BOND
     1    19    20    1
     2    20    21    1
     3    20    14    1
     4    14    15   ar
     5    15    16   ar
     6    16    13    1
     7    13     7    1
     8     7     8    1
     9     7     9   am
    10     9    10    2
    11     9    11   am
    12     6    11    1
    13     6     2    1
    14     2     3    2
    15     2     4   am
    16     4     1    1
    17     1    25    1
    18    25    26    1
    19    26    27   ar
    20    27    28   ar
    21    28    29   ar
    22    29    30   ar
    23    30    31   ar
    24     1    32    1
    25    32    44    1
    26    44    45    1
    27    45    46   ar
    28    46    47   ar
    29    47    48   ar
    30    48    49   ar
    31    49    50   ar
    32    32    33    1
    33    33    34   am
    34    34    35    2
    35    34    37    1
    36    37    38    1
    37    38    39    1
    38    39    40   ar
    39    40    41   ar
    40    41    42   ar
    41    42    43   ar
    42     6    22    1
    43    22    23    1
    44    22    24    1
    45    16    17   ar
    46    17    18   ar
    47    18    14   ar
    48    31    26   ar
    49    50    45   ar
    50    43    39   ar
    51    11    12    1
    52     4     5    1
    53    33    36    1
@<TRIPOS>MOLECULE
*****
 50 53 0 0 0
SMALL
GASTEIGER

@<TRIPOS>ATOM
      1 C          61.9263   86.2186   11.3633 C.3     1  UNL1        0.0942
      2 C          63.3591   87.7728   12.8738 C.2     1  UNL1        0.2404
      3 O          63.0320   88.9369   11.9863 O.2     1  UNL1       -0.2733
      4 N          62.8063   86.4136   12.5623 N.am    1  UNL1       -0.3027
      5 H          63.0210   85.6495   13.1449 H       1  UNL1        0.1495
      6 C          64.2391   87.9678   14.0728 C.3     1  UNL1        0.1496
      7 N          65.0541   91.5801   15.5002 N.am    1  UNL1       -0.2567
      8 C          64.4954   92.5619   16.4871 C.3     1  UNL1        0.1168
      9 C          64.3673   90.2649   15.2799 C.2     1  UNL1        0.3046
     10 O          63.1218   89.9315   16.0466 O.2     1  UNL1       -0.2526
     11 N          64.9260   89.2831   14.2931 N.am    1  UNL1       -0.2824
     12 H          65.7434   89.5019   13.7899 H       1  UNL1        0.1514
     13 C          66.2996   91.9135   14.7336 C.3     1  UNL1        0.1413
     14 C          66.8335   92.8148   10.9963 C.ar    1  UNL1        0.0875
     15 N          67.3697   92.5866   12.3784 N.ar    1  UNL1       -0.2453
     16 C          66.2178   92.2251   13.2687 C.ar    1  UNL1        0.0858
     17 C          64.9697   92.2299   12.4367 C.ar    1  UNL1        0.0530
     18 S          65.3502   92.5944   11.0323 S.2     1  UNL1       -0.0705
     19 C          68.7553   92.3101    9.3223 C.3     1  UNL1        0.0069
     20 C          67.6391   93.1965    9.7899 C.3     1  UNL1        0.0465
     21 C          67.3286   94.4645    9.0512 C.3     1  UNL1        0.0069
     22 C          64.4322   86.8477   15.0515 C.3     1  UNL1        0.0270
     23 C          63.5097   86.7108   16.2264 C.3     1  UNL1        0.0022
     24 C          65.5478   85.8644   14.8554 C.3     1  UNL1        0.0022
     25 C          60.6318   86.9682   11.2532 C.3     1  UNL1        0.0476
     26 C          60.2434   87.6072    9.9528 C.ar    1  UNL1       -0.0205
     27 C          60.7866   88.9572    9.5888 C.ar    1  UNL1       -0.0042
     28 C          60.3982   89.5961    8.2885 C.ar    1  UNL1       -0.0003
     29 C          59.4666   88.8851    7.3522 C.ar    1  UNL1       -0.0000
     30 C          58.9235   87.5352    7.7162 C.ar    1  UNL1       -0.0003
     31 C          59.3119   86.8962    9.0165 C.ar    1  UNL1       -0.0042
     32 C          62.3409   85.2738   10.2744 C.3     1  UNL1        0.0973
     33 N          62.2021   83.7935   10.4728 N.am    1  UNL1       -0.2703
     34 C          63.4262   82.9352   10.5952 C.2     1  UNL1        0.4020
     35 O          64.7890   83.5572   10.5194 O.2     1  UNL1       -0.2264
     36 H          61.3077   83.3852   10.5225 H       1  UNL1        0.1527
     37 O          63.2874   81.4548   10.7936 O.3     1  UNL1       -0.4291
     38 C          62.9544   80.9078   12.1500 C.3     1  UNL1        0.2447
     39 C          63.0716   81.7843   13.3616 C.ar    1  UNL1        0.0714
     40 C          64.3441   82.1453   14.0689 C.ar    1  UNL1        0.1053
     41 N          63.9958   83.0378   15.2231 N.ar    1  UNL1       -0.2350
     42 C          62.5079   83.2283   15.2292 C.ar    1  UNL1        0.1343
     43 S          61.9368   82.4536   14.0787 S.2     1  UNL1       -0.0652
     44 C          62.8944   85.8094    8.9873 C.3     1  UNL1        0.0477
     45 C          62.4482   85.2269    7.6791 C.ar    1  UNL1       -0.0205
     46 C          60.9850   85.0711    7.3875 C.ar    1  UNL1       -0.0042
     47 C          60.5388   84.4886    6.0792 C.ar    1  UNL1       -0.0003
     48 C          61.5557   84.0616    5.0626 C.ar    1  UNL1       -0.0000
     49 C          63.0189   84.2173    5.3541 C.ar    1  UNL1       -0.0003
     50 C          63.4651   84.7999    6.6624 C.ar    1  UNL1       -0.0042
@<TRIPOS>BOND
     1    19    20    1
     2    20    21    1
     3    20    14    1
     4    14    15   ar
     5    15    16   ar
     6    16    13    1
     7    13     7    1
     8     7     8    1
     9     7     9   am
    10     9    10    2
    11     9    11   am
    12     6    11    1
    13     6     2    1
    14     2     3    2
    15     2     4   am
    16     4     1    1
    17     1    25    1
    18    25    26    1
    19    26    27   ar
    20    27    28   ar
    21    28    29   ar
    22    29    30   ar
    23    30    31   ar
    24     1    32    1
    25    32    44    1
    26    44    45    1
    27    45    46   ar
    28    46    47   ar
    29    47    48   ar
    30    48    49   ar
    31    49    50   ar
    32    32    33    1
    33    33    34   am
    34    34    35    2
    35    34    37    1
    36    37    38    1
    37    38    39    1
    38    39    40   ar
    39    40    41   ar
    40    41    42   ar
    41    42    43   ar
    42     6    22    1
    43    22    23    1
    44    22    24    1
    45    16    17   ar
    46    17    18   ar
    47    18    14   ar
    48    31    26   ar
    49    50    45   ar
    50    43    39   ar
    51    11    12    1
    52     4     5    1
    53    33    36    1
@<TRIPOS>MOLECULE
*****
 50 53 0 0 0
SMALL
GASTEIGER

@<TRIPOS>ATOM
      1 C          64.2601   91.3842   12.0581 C.3     1  UNL1        0.0942
      2 C          62.3274   89.6814   11.7188 C.2     1  UNL1        0.2404
      3 O          61.7195   90.1119   13.0207 O.2     1  UNL1       -0.2733
      4 N          63.5977   90.3175   11.2375 N.am    1  UNL1       -0.3027
      5 H          63.9968   90.0349   10.3830 H       1  UNL1        0.1495
      6 C          61.6650   88.6146   10.8982 C.3     1  UNL1        0.1496
      7 N          62.8684   85.2457    9.1801 N.am    1  UNL1       -0.2567
      8 C          62.7029   84.5130    7.8817 C.3     1  UNL1        0.1168
      9 C          62.1840   86.5638    9.3900 C.2     1  UNL1        0.3046
     10 O          61.3341   87.1493    8.3014 O.2     1  UNL1       -0.2526
     11 N          62.3495   87.2965   10.6884 N.am    1  UNL1       -0.2824
     12 H          62.9073   86.9122   11.4028 H       1  UNL1        0.1514
     13 C          63.7183   84.6601   10.2686 C.3     1  UNL1        0.1413
     14 C          62.6351   81.4766   12.2069 C.ar    1  UNL1        0.0875
     15 N          62.7127   82.9690   12.0780 N.ar    1  UNL1       -0.2453
     16 C          63.4219   83.2872   10.7951 C.ar    1  UNL1        0.0858
     17 C          63.7826   81.9915   10.1311 C.ar    1  UNL1        0.0530
     18 S          63.2964   80.8724   11.0036 S.2     1  UNL1       -0.0705
     19 C          60.7436   81.2282   13.9706 C.3     1  UNL1        0.0069
     20 C          62.0067   80.7210   13.3400 C.3     1  UNL1        0.0465
     21 C          62.6413   79.4582   13.8427 C.3     1  UNL1        0.0069
     22 C          60.3183   88.8661   10.2875 C.3     1  UNL1        0.0270
     23 C          59.0887   88.2795   10.9153 C.3     1  UNL1        0.0022
     24 C          60.2011   89.7041    9.0490 C.3     1  UNL1        0.0022
     25 C          64.5114   92.7389   11.4652 C.3     1  UNL1        0.0476
     26 C          65.8034   93.0196   10.7566 C.ar    1  UNL1       -0.0205
     27 C          66.1268   94.4149   10.3112 C.ar    1  UNL1       -0.0042
     28 C          67.4187   94.6955    9.6027 C.ar    1  UNL1       -0.0003
     29 C          68.3873   93.5808    9.3395 C.ar    1  UNL1       -0.0000
     30 C          68.0639   92.1855    9.7849 C.ar    1  UNL1       -0.0003
     31 C          66.7720   91.9049   10.4935 C.ar    1  UNL1       -0.0042
     32 C          64.6712   91.0961   13.4717 C.3     1  UNL1        0.0973
     33 N          64.6278   89.6906   13.9937 N.am    1  UNL1       -0.2703
     34 C          63.8246   89.3702   15.2194 C.2     1  UNL1        0.4020
     35 O          63.0648   90.4554   15.9231 O.2     1  UNL1       -0.2264
     36 H          65.1265   88.9783   13.5319 H       1  UNL1        0.1527
     37 O          63.7812   87.9646   15.7415 O.3     1  UNL1       -0.4291
     38 C          64.5281   86.8765   15.0287 C.3     1  UNL1        0.2447
     39 C          64.0909   85.4488   15.1720 C.ar    1  UNL1        0.0714
     40 C          64.8633   84.2415   14.7292 C.ar    1  UNL1        0.1053
     41 N          64.0544   83.0242   15.0667 N.ar    1  UNL1       -0.2350
     42 C          62.7821   83.4791   15.7182 C.ar    1  UNL1        0.1343
     43 S          62.8047   84.9776   15.7832 S.2     1  UNL1       -0.0652
     44 C          65.1256   92.2136   14.3631 C.3     1  UNL1        0.0477
     45 C          66.5863   92.3971   14.6504 C.ar    1  UNL1       -0.0205
     46 C          67.6116   91.8574   13.6978 C.ar    1  UNL1       -0.0042
     47 C          69.0724   92.0409   13.9851 C.ar    1  UNL1       -0.0003
     48 C          69.5078   92.7641   15.2250 C.ar    1  UNL1       -0.0000
     49 C          68.4826   93.3037   16.1776 C.ar    1  UNL1       -0.0003
     50 C          67.0217   93.1202   15.8904 C.ar    1  UNL1       -0.0042
@<TRIPOS>BOND
     1    19    20    1
     2    20    21    1
     3    20    14    1
     4    14    15   ar
     5    15    16   ar
     6    16    13    1
     7    13     7    1
     8     7     8    1
     9     7     9   am
    10     9    10    2
    11     9    11   am
    12     6    11    1
    13     6     2    1
    14     2     3    2
    15     2     4   am
    16     4     1    1
    17     1    25    1
    18    25    26    1
    19    26    27   ar
    20    27    28   ar
    21    28    29   ar
    22    29    30   ar
    23    30    31   ar
    24     1    32    1
    25    32    44    1
    26    44    45    1
    27    45    46   ar
    28    46    47   ar
    29    47    48   ar
    30    48    49   ar
    31    49    50   ar
    32    32    33    1
    33    33    34   am
    34    34    35    2
    35    34    37    1
    36    37    38    1
    37    38    39    1
    38    39    40   ar
    39    40    41   ar
    40    41    42   ar
    41    42    43   ar
    42     6    22    1
    43    22    23    1
    44    22    24    1
    45    16    17   ar
    46    17    18   ar
    47    18    14   ar
    48    31    26   ar
    49    50    45   ar
    50    43    39   ar
    51    11    12    1
    52     4     5    1
    53    33    36    1
@<TRIPOS>MOLECULE
*****
 50 53 0 0 0
SMALL
GASTEIGER

@<TRIPOS>ATOM
      1 C          64.4653   89.6553   13.7657 C.3     1  UNL1        0.0942
      2 C          62.1180   89.3008   12.7100 C.2     1  UNL1        0.2404
      3 O          61.4777   89.8592   13.9461 O.2     1  UNL1       -0.2733
      4 N          63.6119   89.1988   12.6198 N.am    1  UNL1       -0.3027
      5 H          64.0321   88.8323   11.8084 H       1  UNL1        0.1495
      6 C          61.2646   88.8443   11.5640 C.3     1  UNL1        0.1496
      7 N          61.3792   86.1870    8.6185 N.am    1  UNL1       -0.2567
      8 C          60.4774   85.6327    7.5558 C.3     1  UNL1        0.1168
      9 C          60.8710   87.2384    9.5599 C.2     1  UNL1        0.3046
     10 O          59.4610   87.7356    9.4385 O.2     1  UNL1       -0.2526
     11 N          61.7728   87.7928   10.6226 N.am    1  UNL1       -0.2824
     12 H          62.6983   87.4666   10.7023 H       1  UNL1        0.1514
     13 C          62.7893   85.6899    8.7399 C.3     1  UNL1        0.1413
     14 C          63.1972   83.3194   11.7862 C.ar    1  UNL1        0.0875
     15 N          62.6019   84.5375   11.1445 N.ar    1  UNL1       -0.2453
     16 C          63.1256   84.6252    9.7416 C.ar    1  UNL1        0.0858
     17 C          64.0446   83.4614    9.5163 C.ar    1  UNL1        0.0530
     18 S          64.0889   82.6543   10.7799 S.2     1  UNL1       -0.0705
     19 C          61.9887   83.5963   14.0694 C.3     1  UNL1        0.0069
     20 C          62.9452   82.8490   13.1880 C.3     1  UNL1        0.0465
     21 C          63.6496   81.6313   13.7085 C.3     1  UNL1        0.0069
     22 C          59.9029   89.4392   11.3594 C.3     1  UNL1        0.0270
     23 C          59.7045   90.5278   10.3466 C.3     1  UNL1        0.0022
     24 C          58.7397   88.9456   12.1675 C.3     1  UNL1        0.0022
     25 C          65.0890   88.6470   14.6846 C.3     1  UNL1        0.0476
     26 C          64.2209   87.7889   15.5566 C.ar    1  UNL1       -0.0205
     27 C          64.2227   86.2991   15.3825 C.ar    1  UNL1       -0.0042
     28 C          63.3546   85.4411   16.2544 C.ar    1  UNL1       -0.0003
     29 C          62.4848   86.0730   17.3004 C.ar    1  UNL1       -0.0000
     30 C          62.4830   87.5628   17.4745 C.ar    1  UNL1       -0.0003
     31 C          63.3511   88.4208   16.6026 C.ar    1  UNL1       -0.0042
     32 C          64.6951   91.1201   13.9928 C.3     1  UNL1        0.0973
     33 N          64.3435   92.1094   12.9214 N.am    1  UNL1       -0.2703
     34 C          65.3843   92.5470   11.9338 C.2     1  UNL1        0.4020
     35 O          66.7766   91.9954   12.0176 O.2     1  UNL1       -0.2264
     36 H          63.4296   92.4714   12.8665 H       1  UNL1        0.1527
     37 O          65.0326   93.5362   10.8625 O.3     1  UNL1       -0.4291
     38 C          65.6347   94.9099   10.8832 C.3     1  UNL1        0.2447
     39 C          66.3295   95.4427    9.6652 C.ar    1  UNL1        0.0714
     40 C          67.4836   94.7985    8.9559 C.ar    1  UNL1        0.1053
     41 N          67.8595   95.6708    7.7950 N.ar    1  UNL1       -0.2350
     42 C          66.9378   96.8542    7.7868 C.ar    1  UNL1        0.1343
     43 S          65.9922   96.7131    8.9427 S.2     1  UNL1       -0.0652
     44 C          65.2765   91.5957   15.2912 C.3     1  UNL1        0.0477
     45 C          66.6779   92.1286   15.3348 C.ar    1  UNL1       -0.0205
     46 C          66.9666   93.4232   16.0355 C.ar    1  UNL1       -0.0042
     47 C          68.3680   93.9561   16.0791 C.ar    1  UNL1       -0.0003
     48 C          69.4809   93.1945   15.4222 C.ar    1  UNL1       -0.0000
     49 C          69.1922   91.9000   14.7216 C.ar    1  UNL1       -0.0003
     50 C          67.7907   91.3670   14.6779 C.ar    1  UNL1       -0.0042
@<TRIPOS>BOND
     1    19    20    1
     2    20    21    1
     3    20    14    1
     4    14    15   ar
     5    15    16   ar
     6    16    13    1
     7    13     7    1
     8     7     8    1
     9     7     9   am
    10     9    10    2
    11     9    11   am
    12     6    11    1
    13     6     2    1
    14     2     3    2
    15     2     4   am
    16     4     1    1
    17     1    25    1
    18    25    26    1
    19    26    27   ar
    20    27    28   ar
    21    28    29   ar
    22    29    30   ar
    23    30    31   ar
    24     1    32    1
    25    32    44    1
    26    44    45    1
    27    45    46   ar
    28    46    47   ar
    29    47    48   ar
    30    48    49   ar
    31    49    50   ar
    32    32    33    1
    33    33    34   am
    34    34    35    2
    35    34    37    1
    36    37    38    1
    37    38    39    1
    38    39    40   ar
    39    40    41   ar
    40    41    42   ar
    41    42    43   ar
    42     6    22    1
    43    22    23    1
    44    22    24    1
    45    16    17   ar
    46    17    18   ar
    47    18    14   ar
    48    31    26   ar
    49    50    45   ar
    50    43    39   ar
    51    11    12    1
    52     4     5    1
    53    33    36    1
@<TRIPOS>MOLECULE
*****
 50 53 0 0 0
SMALL
GASTEIGER

@<TRIPOS>ATOM
      1 C          63.2470   90.3414   10.9116 C.3     1  UNL1        0.0942
      2 C          63.3469   89.9585   13.4794 C.2     1  UNL1        0.2404
      3 O          61.8662   90.1806   13.5701 O.2     1  UNL1       -0.2733
      4 N          64.0373   90.0389   12.1501 N.am    1  UNL1       -0.3027
      5 H          65.0091   89.8932   12.0905 H       1  UNL1        0.1495
      6 C          64.1372   89.6560   14.7179 C.3     1  UNL1        0.1496
      7 N          63.2018   86.3495   16.7033 N.am    1  UNL1       -0.2567
      8 C          62.1403   85.8502   17.6382 C.3     1  UNL1        0.1168
      9 C          63.1388   87.7530   16.1780 C.2     1  UNL1        0.3046
     10 O          62.0143   88.6574   16.5877 O.2     1  UNL1       -0.2526
     11 N          64.2002   88.2523   15.2431 N.am    1  UNL1       -0.2824
     12 H          64.9382   87.6588   14.9743 H       1  UNL1        0.1514
     13 C          64.3263   85.4451   16.2937 C.3     1  UNL1        0.1413
     14 C          63.2005   82.6101   13.8935 C.ar    1  UNL1        0.0875
     15 N          63.0303   83.4032   15.1553 N.ar    1  UNL1       -0.2453
     16 C          64.1177   84.4352   15.2044 C.ar    1  UNL1        0.0858
     17 C          64.9600   84.2799   13.9730 C.ar    1  UNL1        0.0530
     18 S          64.3932   83.1520   13.1628 S.2     1  UNL1       -0.0705
     19 C          62.6746   80.7170   12.1936 C.3     1  UNL1        0.0069
     20 C          62.3307   81.4746   13.4418 C.3     1  UNL1        0.0465
     21 C          61.1172   81.0965   14.2382 C.3     1  UNL1        0.0069
     22 C          64.8644   90.7570   15.4311 C.3     1  UNL1        0.0270
     23 C          64.1668   91.5491   16.4969 C.3     1  UNL1        0.0022
     24 C          66.2892   91.0660   15.0785 C.3     1  UNL1        0.0022
     25 C          63.5330   91.5860   10.1247 C.3     1  UNL1        0.0476
     26 C          64.5028   92.6011   10.6530 C.ar    1  UNL1       -0.0205
     27 C          64.9350   93.7471    9.7872 C.ar    1  UNL1       -0.0042
     28 C          65.9048   94.7622   10.3155 C.ar    1  UNL1       -0.0003
     29 C          66.4424   94.6311   11.7097 C.ar    1  UNL1       -0.0000
     30 C          66.0103   93.4851   12.5755 C.ar    1  UNL1       -0.0003
     31 C          65.0405   92.4701   12.0472 C.ar    1  UNL1       -0.0042
     32 C          62.1707   89.3993   10.4599 C.3     1  UNL1        0.0973
     33 N          61.2851   89.7695    9.3072 N.am    1  UNL1       -0.2703
     34 C          59.9729   89.0687    9.1143 C.2     1  UNL1        0.4020
     35 O          59.5463   87.9978   10.0741 O.2     1  UNL1       -0.2264
     36 H          61.5650   90.4724    8.6773 H       1  UNL1        0.1527
     37 O          59.0873   89.4389    7.9617 O.3     1  UNL1       -0.4291
     38 C          59.6184   89.3839    6.5600 C.3     1  UNL1        0.2447
     39 C          59.3735   90.5267    5.6197 C.ar    1  UNL1        0.0714
     40 C          58.0416   91.1423    5.3082 C.ar    1  UNL1        0.1053
     41 N          58.2625   92.2506    4.3218 N.ar    1  UNL1       -0.2350
     42 C          59.7310   92.3199    4.0237 C.ar    1  UNL1        0.1343
     43 S          60.4176   91.2545    4.8259 S.2     1  UNL1       -0.0652
     44 C          61.9800   88.0870   11.1609 C.3     1  UNL1        0.0477
     45 C          62.3765   86.8095   10.4822 C.ar    1  UNL1       -0.0205
     46 C          62.4424   85.5325   11.2665 C.ar    1  UNL1       -0.0042
     47 C          62.8390   84.2551   10.5877 C.ar    1  UNL1       -0.0003
     48 C          63.1697   84.2545    9.1246 C.ar    1  UNL1       -0.0000
     49 C          63.1039   85.5314    8.3403 C.ar    1  UNL1       -0.0003
     50 C          62.7073   86.8090    9.0191 C.ar    1  UNL1       -0.0042
@<TRIPOS>BOND
     1    19    20    1
     2    20    21    1
     3    20    14    1
     4    14    15   ar
     5    15    16   ar
     6    16    13    1
     7    13     7    1
     8     7     8    1
     9     7     9   am
    10     9    10    2
    11     9    11   am
    12     6    11    1
    13     6     2    1
    14     2     3    2
    15     2     4   am
    16     4     1    1
    17     1    25    1
    18    25    26    1
    19    26    27   ar
    20    27    28   ar
    21    28    29   ar
    22    29    30   ar
    23    30    31   ar
    24     1    32    1
    25    32    44    1
    26    44    45    1
    27    45    46   ar
    28    46    47   ar
    29    47    48   ar
    30    48    49   ar
    31    49    50   ar
    32    32    33    1
    33    33    34   am
    34    34    35    2
    35    34    37    1
    36    37    38    1
    37    38    39    1
    38    39    40   ar
    39    40    41   ar
    40    41    42   ar
    41    42    43   ar
    42     6    22    1
    43    22    23    1
    44    22    24    1
    45    16    17   ar
    46    17    18   ar
    47    18    14   ar
    48    31    26   ar
    49    50    45   ar
    50    43    39   ar
    51    11    12    1
    52     4     5    1
    53    33    36    1
@<TRIPOS>MOLECULE
*****
 50 53 0 0 0
SMALL
GASTEIGER

@<TRIPOS>ATOM
      1 C          63.1079   86.0981   12.0085 C.3     1  UNL1        0.0942
      2 C          61.6205   88.2197   11.8169 C.2     1  UNL1        0.2404
      3 O          60.4411   87.4377   12.3143 O.2     1  UNL1       -0.2733
      4 N          62.9540   87.5499   11.6640 N.am    1  UNL1       -0.3027
      5 H          63.7281   88.0631   11.3376 H       1  UNL1        0.1495
      6 C          61.4666   89.6715   11.4725 C.3     1  UNL1        0.1496
      7 N          64.4375   92.2867   11.1819 N.am    1  UNL1       -0.2567
      8 C          65.2710   92.9427   10.1213 C.3     1  UNL1        0.1168
      9 C          63.3688   91.3071   10.7969 C.2     1  UNL1        0.3046
     10 O          63.1335   90.9835    9.3512 O.2     1  UNL1       -0.2526
     11 N          62.5354   90.6511   11.8576 N.am    1  UNL1       -0.2824
     12 H          62.6898   90.8634   12.8064 H       1  UNL1        0.1514
     13 C          64.6728   92.6102   12.6277 C.3     1  UNL1        0.1413
     14 C          67.9435   92.6841   14.7164 C.ar    1  UNL1        0.0875
     15 N          66.4871   93.0029   14.5510 N.ar    1  UNL1       -0.2453
     16 C          66.0528   92.5019   13.2055 C.ar    1  UNL1        0.0858
     17 C          67.2407   91.8734   12.5393 C.ar    1  UNL1        0.0530
     18 S          68.4092   91.9861   13.4731 S.2     1  UNL1       -0.0705
     19 C          69.2126   91.9127   16.8481 C.3     1  UNL1        0.0069
     20 C          68.7861   93.0067   15.9147 C.3     1  UNL1        0.0465
     21 C          69.2022   94.4233   16.1795 C.3     1  UNL1        0.0069
     22 C          60.2440   90.1437   10.7430 C.3     1  UNL1        0.0270
     23 C          60.0746   89.8350    9.2849 C.3     1  UNL1        0.0022
     24 C          59.1908   90.9246   11.4716 C.3     1  UNL1        0.0022
     25 C          63.0263   85.0587   10.9301 C.3     1  UNL1        0.0476
     26 C          62.2676   85.3452    9.6682 C.ar    1  UNL1       -0.0205
     27 C          60.9183   85.9968    9.7357 C.ar    1  UNL1       -0.0042
     28 C          60.1598   86.2833    8.4738 C.ar    1  UNL1       -0.0003
     29 C          60.7505   85.9180    7.1443 C.ar    1  UNL1       -0.0000
     30 C          62.0998   85.2663    7.0767 C.ar    1  UNL1       -0.0003
     31 C          62.8584   84.9799    8.3386 C.ar    1  UNL1       -0.0042
     32 C          63.3435   85.6858   13.4314 C.3     1  UNL1        0.0973
     33 N          62.5323   84.5780   14.0353 N.am    1  UNL1       -0.2703
     34 C          63.2194   83.4035   14.6666 C.2     1  UNL1        0.4020
     35 O          64.7177   83.3368   14.6940 O.2     1  UNL1       -0.2264
     36 H          61.5490   84.6218   14.0174 H       1  UNL1        0.1527
     37 O          62.4082   82.2957   15.2706 O.3     1  UNL1       -0.4291
     38 C          61.5866   81.4017   14.3899 C.3     1  UNL1        0.2447
     39 C          62.1467   80.9115   13.0876 C.ar    1  UNL1        0.0714
     40 C          62.3071   79.4765   12.6812 C.ar    1  UNL1        0.1053
     41 N          62.9043   79.4483   11.3055 N.ar    1  UNL1       -0.2350
     42 C          63.1130   80.8658   10.8616 C.ar    1  UNL1        0.1343
     43 S          62.6448   81.7701   11.9631 S.2     1  UNL1       -0.0652
     44 C          64.3903   86.3812   14.2502 C.3     1  UNL1        0.0477
     45 C          64.0324   87.6022   15.0446 C.ar    1  UNL1       -0.0205
     46 C          64.3398   88.9666   14.5023 C.ar    1  UNL1       -0.0042
     47 C          63.9819   90.1876   15.2967 C.ar    1  UNL1       -0.0003
     48 C          63.3164   90.0442   16.6333 C.ar    1  UNL1       -0.0000
     49 C          63.0090   88.6800   17.1756 C.ar    1  UNL1       -0.0003
     50 C          63.3669   87.4589   16.3813 C.ar    1  UNL1       -0.0042
@<TRIPOS>BOND
     1    19    20    1
     2    20    21    1
     3    20    14    1
     4    14    15   ar
     5    15    16   ar
     6    16    13    1
     7    13     7    1
     8     7     8    1
     9     7     9   am
    10     9    10    2
    11     9    11   am
    12     6    11    1
    13     6     2    1
    14     2     3    2
    15     2     4   am
    16     4     1    1
    17     1    25    1
    18    25    26    1
    19    26    27   ar
    20    27    28   ar
    21    28    29   ar
    22    29    30   ar
    23    30    31   ar
    24     1    32    1
    25    32    44    1
    26    44    45    1
    27    45    46   ar
    28    46    47   ar
    29    47    48   ar
    30    48    49   ar
    31    49    50   ar
    32    32    33    1
    33    33    34   am
    34    34    35    2
    35    34    37    1
    36    37    38    1
    37    38    39    1
    38    39    40   ar
    39    40    41   ar
    40    41    42   ar
    41    42    43   ar
    42     6    22    1
    43    22    23    1
    44    22    24    1
    45    16    17   ar
    46    17    18   ar
    47    18    14   ar
    48    31    26   ar
    49    50    45   ar
    50    43    39   ar
    51    11    12    1
    52     4     5    1
    53    33    36    1
@<TRIPOS>MOLECULE
*****
 50 53 0 0 0
SMALL
GASTEIGER

@<TRIPOS>ATOM
      1 C          64.3972   91.2072   11.9578 C.3     1  UNL1        0.0942
      2 C          63.6383   90.1318   14.1979 C.2     1  UNL1        0.2404
      3 O          63.3865   91.4963   14.7677 O.2     1  UNL1       -0.2733
      4 N          64.1437   89.9873   12.7929 N.am    1  UNL1       -0.3027
      5 H          64.3090   89.0917   12.4189 H       1  UNL1        0.1495
      6 C          63.3849   88.9118   15.0329 C.3     1  UNL1        0.1496
      7 N          64.1241   85.2015   13.8340 N.am    1  UNL1       -0.2567
      8 C          65.2028   84.1658   13.9511 C.3     1  UNL1        0.1168
      9 C          64.2938   86.5388   14.4920 C.2     1  UNL1        0.3046
     10 O          65.5422   86.8403   15.2671 O.2     1  UNL1       -0.2526
     11 N          63.2151   87.5745   14.3749 N.am    1  UNL1       -0.2824
     12 H          62.3958   87.3766   13.8662 H       1  UNL1        0.1514
     13 C          62.8758   84.9000   13.0589 C.3     1  UNL1        0.1413
     14 C          62.5546   84.7457    9.1939 C.ar    1  UNL1        0.0875
     15 N          62.1582   85.3253   10.5194 N.ar    1  UNL1       -0.2453
     16 C          62.9543   84.6322   11.5852 C.ar    1  UNL1        0.0858
     17 C          63.8428   83.6242   10.9184 C.ar    1  UNL1        0.0530
     18 S          63.5958   83.6944    9.4405 S.2     1  UNL1       -0.0705
     19 C          60.7029   85.8846    7.7712 C.3     1  UNL1        0.0069
     20 C          62.0062   85.1470    7.8567 C.3     1  UNL1        0.0465
     21 C          62.7611   84.8106    6.6049 C.3     1  UNL1        0.0069
     22 C          63.3011   89.0291   16.5260 C.3     1  UNL1        0.0270
     23 C          62.8779   87.8482   17.3485 C.3     1  UNL1        0.0022
     24 C          63.6405   90.3272   17.1965 C.3     1  UNL1        0.0022
     25 C          63.5500   91.4787   10.7501 C.3     1  UNL1        0.0476
     26 C          62.3374   90.6380   10.4802 C.ar    1  UNL1       -0.0205
     27 C          61.0164   91.0111   11.0849 C.ar    1  UNL1       -0.0042
     28 C          59.8038   90.1704   10.8150 C.ar    1  UNL1       -0.0003
     29 C          59.9123   88.9566    9.9403 C.ar    1  UNL1       -0.0000
     30 C          61.2333   88.5836    9.3356 C.ar    1  UNL1       -0.0003
     31 C          62.4458   89.4242    9.6055 C.ar    1  UNL1       -0.0042
     32 C          65.4978   92.1558   12.3305 C.3     1  UNL1        0.0973
     33 N          65.2315   93.6311   12.3809 N.am    1  UNL1       -0.2703
     34 C          66.1173   94.5793   11.6282 C.2     1  UNL1        0.4020
     35 O          67.2693   94.0521   10.8252 O.2     1  UNL1       -0.2264
     36 H          64.4753   93.9771   12.9079 H       1  UNL1        0.1527
     37 O          65.8509   96.0546   11.6786 O.3     1  UNL1       -0.4291
     38 C          65.1033   96.7203   10.5616 C.3     1  UNL1        0.2447
     39 C          65.6981   96.7691    9.1854 C.ar    1  UNL1        0.0714
     40 C          64.9337   96.8138    7.8956 C.ar    1  UNL1        0.1053
     41 N          65.9249   96.8541    6.7705 N.ar    1  UNL1       -0.2350
     42 C          67.3019   96.8344    7.3649 C.ar    1  UNL1        0.1343
     43 S          67.1617   96.7818    8.8575 S.2     1  UNL1       -0.0652
     44 C          66.8648   91.6290   12.6528 C.3     1  UNL1        0.0477
     45 C          67.5401   92.0281   13.9313 C.ar    1  UNL1       -0.0205
     46 C          66.7237   92.2755   15.1652 C.ar    1  UNL1       -0.0042
     47 C          67.3990   92.6745   16.4437 C.ar    1  UNL1       -0.0003
     48 C          68.8907   92.8263   16.4884 C.ar    1  UNL1       -0.0000
     49 C          69.7070   92.5790   15.2546 C.ar    1  UNL1       -0.0003
     50 C          69.0317   92.1799   13.9760 C.ar    1  UNL1       -0.0042
@<TRIPOS>BOND
     1    19    20    1
     2    20    21    1
     3    20    14    1
     4    14    15   ar
     5    15    16   ar
     6    16    13    1
     7    13     7    1
     8     7     8    1
     9     7     9   am
    10     9    10    2
    11     9    11   am
    12     6    11    1
    13     6     2    1
    14     2     3    2
    15     2     4   am
    16     4     1    1
    17     1    25    1
    18    25    26    1
    19    26    27   ar
    20    27    28   ar
    21    28    29   ar
    22    29    30   ar
    23    30    31   ar
    24     1    32    1
    25    32    44    1
    26    44    45    1
    27    45    46   ar
    28    46    47   ar
    29    47    48   ar
    30    48    49   ar
    31    49    50   ar
    32    32    33    1
    33    33    34   am
    34    34    35    2
    35    34    37    1
    36    37    38    1
    37    38    39    1
    38    39    40   ar
    39    40    41   ar
    40    41    42   ar
    41    42    43   ar
    42     6    22    1
    43    22    23    1
    44    22    24    1
    45    16    17   ar
    46    17    18   ar
    47    18    14   ar
    48    31    26   ar
    49    50    45   ar
    50    43    39   ar
    51    11    12    1
    52     4     5    1
    53    33    36    1
@<TRIPOS>MOLECULE
*****
 50 53 0 0 0
SMALL
GASTEIGER

@<TRIPOS>ATOM
      1 C          62.7993   87.0799   12.2962 C.3     1  UNL1        0.0942
      2 C          63.0267   89.6668   12.3749 C.2     1  UNL1        0.2404
      3 O          62.1870   89.7028   13.6172 O.2     1  UNL1       -0.2733
      4 N          63.3329   88.3553   11.7143 N.am    1  UNL1       -0.3027
      5 H          63.8841   88.3316   10.8989 H       1  UNL1        0.1495
      6 C          63.5603   90.9422   11.7930 C.3     1  UNL1        0.1496
      7 N          66.2488   92.0592   14.4901 N.am    1  UNL1       -0.2567
      8 C          67.0872   91.4506   15.5749 C.3     1  UNL1        0.1168
      9 C          65.3238   91.1964   13.6840 C.2     1  UNL1        0.3046
     10 O          65.2371   89.7250   13.9626 O.2     1  UNL1       -0.2526
     11 N          64.4854   91.8050   12.5992 N.am    1  UNL1       -0.2824
     12 H          64.5423   92.7707   12.4163 H       1  UNL1        0.1514
     13 C          66.3355   93.5306   14.2115 C.3     1  UNL1        0.1413
     14 C          67.1849   94.1213   10.4705 C.ar    1  UNL1        0.0875
     15 N          67.2040   93.2595   11.6981 N.ar    1  UNL1       -0.2453
     16 C          66.5362   94.0174   12.8070 C.ar    1  UNL1        0.0858
     17 C          66.1044   95.3476   12.2648 C.ar    1  UNL1        0.0530
     18 S          66.5053   95.4119   10.8208 S.2     1  UNL1       -0.0705
     19 C          68.5029   92.4728    8.9556 C.3     1  UNL1        0.0069
     20 C          67.7467   93.7566    9.1284 C.3     1  UNL1        0.0465
     21 C          67.5523   94.6759    7.9591 C.3     1  UNL1        0.0069
     22 C          63.1689   91.3549   10.4050 C.3     1  UNL1        0.0270
     23 C          63.9149   92.4559    9.7114 C.3     1  UNL1        0.0022
     24 C          62.0314   90.6664    9.7107 C.3     1  UNL1        0.0022
     25 C          61.4308   86.5972   11.9166 C.3     1  UNL1        0.0476
     26 C          60.9579   86.7223   10.4985 C.ar    1  UNL1       -0.0205
     27 C          61.4931   85.7983    9.4452 C.ar    1  UNL1       -0.0042
     28 C          61.0202   85.9235    8.0272 C.ar    1  UNL1       -0.0003
     29 C          60.0121   86.9726    7.6626 C.ar    1  UNL1       -0.0000
     30 C          59.4768   87.8966    8.7160 C.ar    1  UNL1       -0.0003
     31 C          59.9497   87.7715   10.1340 C.ar    1  UNL1       -0.0042
     32 C          63.6343   86.2871   13.2576 C.3     1  UNL1        0.0973
     33 N          63.7360   84.7977   13.1114 N.am    1  UNL1       -0.2703
     34 C          64.9285   84.0701   13.6577 C.2     1  UNL1        0.4020
     35 O          66.0194   84.8318   14.3504 O.2     1  UNL1       -0.2264
     36 H          63.0200   84.2977   12.6568 H       1  UNL1        0.1527
     37 O          65.0302   82.5807   13.5115 O.3     1  UNL1       -0.4291
     38 C          64.1045   81.8534   12.5819 C.3     1  UNL1        0.2447
     39 C          62.8668   81.1969   13.1178 C.ar    1  UNL1        0.0714
     40 C          62.4570   79.7716   12.8930 C.ar    1  UNL1        0.1053
     41 N          61.1586   79.5442   13.6089 N.ar    1  UNL1       -0.2350
     42 C          60.7660   80.8289   14.2762 C.ar    1  UNL1        0.1343
     43 S          61.8217   81.8503   13.9727 S.2     1  UNL1       -0.0652
     44 C          64.3677   86.9837   14.3653 C.3     1  UNL1        0.0477
     45 C          63.7648   87.0519   15.7371 C.ar    1  UNL1       -0.0205
     46 C          63.5013   88.3836   16.3752 C.ar    1  UNL1       -0.0042
     47 C          62.8985   88.4517   17.7470 C.ar    1  UNL1       -0.0003
     48 C          62.5592   87.1882   18.4808 C.ar    1  UNL1       -0.0000
     49 C          62.8227   85.8566   17.8427 C.ar    1  UNL1       -0.0003
     50 C          63.4255   85.7883   16.4708 C.ar    1  UNL1       -0.0042
@<TRIPOS>BOND
     1    19    20    1
     2    20    21    1
     3    20    14    1
     4    14    15   ar
     5    15    16   ar
     6    16    13    1
     7    13     7    1
     8     7     8    1
     9     7     9   am
    10     9    10    2
    11     9    11   am
    12     6    11    1
    13     6     2    1
    14     2     3    2
    15     2     4   am
    16     4     1    1
    17     1    25    1
    18    25    26    1
    19    26    27   ar
    20    27    28   ar
    21    28    29   ar
    22    29    30   ar
    23    30    31   ar
    24     1    32    1
    25    32    44    1
    26    44    45    1
    27    45    46   ar
    28    46    47   ar
    29    47    48   ar
    30    48    49   ar
    31    49    50   ar
    32    32    33    1
    33    33    34   am
    34    34    35    2
    35    34    37    1
    36    37    38    1
    37    38    39    1
    38    39    40   ar
    39    40    41   ar
    40    41    42   ar
    41    42    43   ar
    42     6    22    1
    43    22    23    1
    44    22    24    1
    45    16    17   ar
    46    17    18   ar
    47    18    14   ar
    48    31    26   ar
    49    50    45   ar
    50    43    39   ar
    51    11    12    1
    52     4     5    1
    53    33    36    1
@<TRIPOS>MOLECULE
*****
 50 53 0 0 0
SMALL
GASTEIGER

@<TRIPOS>ATOM
      1 C          62.4601   88.2404   11.4284 C.3     1  UNL1        0.0942
      2 C          60.6895   88.4027    9.5339 C.2     1  UNL1        0.2404
      3 O          59.7347   89.0642   10.4830 O.2     1  UNL1       -0.2733
      4 N          62.0522   87.9908   10.0066 N.am    1  UNL1       -0.3027
      5 H          62.6789   87.5566    9.3837 H       1  UNL1        0.1495
      6 C          60.2816   88.1531    8.1122 C.3     1  UNL1        0.1496
      7 N          59.0238   90.8777    5.5152 N.am    1  UNL1       -0.2567
      8 C          57.7395   91.3531    4.9032 C.3     1  UNL1        0.1168
      9 C          59.0106   89.7531    6.5077 C.2     1  UNL1        0.3046
     10 O          57.7130   89.1039    6.8883 O.2     1  UNL1       -0.2526
     11 N          60.2949   89.2777    7.1196 N.am    1  UNL1       -0.2824
     12 H          61.1466   89.7038    6.8699 H       1  UNL1        0.1514
     13 C          60.3214   91.5269    5.1346 C.3     1  UNL1        0.1413
     14 C          60.0060   93.2637    1.6778 C.ar    1  UNL1        0.0875
     15 N          59.4025   92.7959    2.9689 N.ar    1  UNL1       -0.2453
     16 C          60.4836   92.1385    3.7746 C.ar    1  UNL1        0.0858
     17 C          61.7552   92.2000    2.9815 C.ar    1  UNL1        0.0530
     18 S          61.4601   92.8954    1.6856 S.2     1  UNL1       -0.0705
     19 C          59.4698   95.4509    0.3822 C.3     1  UNL1        0.0069
     20 C          59.2825   93.9749    0.5729 C.3     1  UNL1        0.0465
     21 C          58.3718   93.2101   -0.3412 C.3     1  UNL1        0.0069
     22 C          59.8605   86.7789    7.6830 C.3     1  UNL1        0.0270
     23 C          58.4199   86.3720    7.7783 C.3     1  UNL1        0.0022
     24 C          60.8800   85.8117    7.1585 C.3     1  UNL1        0.0022
     25 C          62.7585   87.0848   12.3369 C.3     1  UNL1        0.0476
     26 C          63.0837   85.7398   11.7578 C.ar    1  UNL1       -0.0205
     27 C          63.6713   84.6700   12.6296 C.ar    1  UNL1       -0.0042
     28 C          63.9965   83.3251   12.0504 C.ar    1  UNL1       -0.0003
     29 C          63.7341   83.0501   10.5994 C.ar    1  UNL1       -0.0000
     30 C          63.1465   84.1199    9.7275 C.ar    1  UNL1       -0.0003
     31 C          62.8213   85.4648   10.3067 C.ar    1  UNL1       -0.0042
     32 C          62.5696   89.6457   11.9415 C.3     1  UNL1        0.0973
     33 N          62.2340   89.9502   13.3714 N.am    1  UNL1       -0.2703
     34 C          63.2289   89.6551   14.4545 C.2     1  UNL1        0.4020
     35 O          64.5593   89.0555   14.1078 O.2     1  UNL1       -0.2264
     36 H          61.3607   90.3438   13.5990 H       1  UNL1        0.1527
     37 O          62.8933   89.9597   15.8844 O.3     1  UNL1       -0.4291
     38 C          63.2582   88.9849   16.9645 C.3     1  UNL1        0.2447
     39 C          63.0370   87.5161   16.7552 C.ar    1  UNL1        0.0714
     40 C          61.8719   86.7189   17.2622 C.ar    1  UNL1        0.1053
     41 N          62.0568   85.2968   16.8226 N.ar    1  UNL1       -0.2350
     42 C          63.3362   85.2150   16.0438 C.ar    1  UNL1        0.1343
     43 S          63.9419   86.5867   16.0022 S.2     1  UNL1       -0.0652
     44 C          63.0147   90.7463   11.0248 C.3     1  UNL1        0.0477
     45 C          64.1780   91.6139   11.4041 C.ar    1  UNL1       -0.0205
     46 C          64.8513   92.4618   10.3659 C.ar    1  UNL1       -0.0042
     47 C          66.0146   93.3294   10.7452 C.ar    1  UNL1       -0.0003
     48 C          66.5047   93.3491   12.1628 C.ar    1  UNL1       -0.0000
     49 C          65.8314   92.5013   13.2010 C.ar    1  UNL1       -0.0003
     50 C          64.6681   91.6337   12.8216 C.ar    1  UNL1       -0.0042
@<TRIPOS>BOND
     1    19    20    1
     2    20    21    1
     3    20    14    1
     4    14    15   ar
     5    15    16   ar
     6    16    13    1
     7    13     7    1
     8     7     8    1
     9     7     9   am
    10     9    10    2
    11     9    11   am
    12     6    11    1
    13     6     2    1
    14     2     3    2
    15     2     4   am
    16     4     1    1
    17     1    25    1
    18    25    26    1
    19    26    27   ar
    20    27    28   ar
    21    28    29   ar
    22    29    30   ar
    23    30    31   ar
    24     1    32    1
    25    32    44    1
    26    44    45    1
    27    45    46   ar
    28    46    47   ar
    29    47    48   ar
    30    48    49   ar
    31    49    50   ar
    32    32    33    1
    33    33    34   am
    34    34    35    2
    35    34    37    1
    36    37    38    1
    37    38    39    1
    38    39    40   ar
    39    40    41   ar
    40    41    42   ar
    41    42    43   ar
    42     6    22    1
    43    22    23    1
    44    22    24    1
    45    16    17   ar
    46    17    18   ar
    47    18    14   ar
    48    31    26   ar
    49    50    45   ar
    50    43    39   ar
    51    11    12    1
    52     4     5    1
    53    33    36    1
