@<TRIPOS>MOLECULE
*****
 43 46 0 0 0
SMALL
GASTEIGER

@<TRIPOS>ATOM
      1 C          62.8057   89.7788   12.8813 C.3     1  UNL1        0.1484
      2 O          61.5872   89.9806   13.7325 O.3     1  UNL1       -0.3810
      3 H          60.8245   89.5540   13.3115 H       1  UNL1        0.2105
      4 C          62.7046   89.0102   11.5971 C.3     1  UNL1        0.1245
      5 C          60.9859   87.8447   10.0359 C.2     1  UNL1        0.2492
      6 O          59.7212   87.8925    9.2308 O.2     1  UNL1       -0.2699
      7 N          61.4399   89.0580   10.7920 N.am    1  UNL1       -0.2735
      8 C          63.8784   82.4953   11.9787 C.ar    1  UNL1        0.2891
      9 N          64.1389   82.7932   10.5319 N.ar    1  UNL1       -0.1948
     10 C          63.4181   84.0614   10.1826 C.ar    1  UNL1        0.1202
     11 C          63.3134   84.8365    8.9027 C.ar    1  UNL1        0.0225
     12 C          62.5026   86.0976    8.8538 C.ar    1  UNL1        0.0063
     13 C          61.7966   86.5836   10.0848 C.ar    1  UNL1        0.0567
     14 C          61.9014   85.8085   11.3647 C.ar    1  UNL1        0.0437
     15 C          62.7121   84.5474   11.4136 C.ar    1  UNL1        0.1662
     16 O          62.9966   83.5795   12.5237 O.2     1  UNL1       -0.4239
     17 N          64.4069   81.3197   12.7459 N.pl3   1  UNL1       -0.2884
     18 H          65.3202   80.9927   12.5781 H       1  UNL1        0.1511
     19 C          62.1381   80.2501   13.4229 C.3     1  UNL1        0.0231
     20 C          63.5440   80.6424   13.7689 C.3     1  UNL1        0.0911
     21 C          60.6292   90.3191   10.7430 C.3     1  UNL1        0.0937
     22 C          59.3655   90.4299   11.5436 C.3     1  UNL1        0.0199
     23 C          58.5831   91.7096   11.5368 C.3     1  UNL1        0.0018
     24 C          58.8842   89.2608   12.3509 C.3     1  UNL1        0.0018
     25 C          64.1252   90.3456   13.3143 C.3     1  UNL1        0.1075
     26 N          64.7738   91.4340   12.5112 N.am    1  UNL1       -0.2695
     27 C          65.4676   92.5674   13.2068 C.2     1  UNL1        0.4020
     28 O          65.5129   92.6126   14.7054 O.2     1  UNL1       -0.2264
     29 H          64.7441   91.4044   11.5276 H       1  UNL1        0.1528
     30 O          66.1162   93.6558   12.4037 O.3     1  UNL1       -0.4291
     31 C          66.4299   93.4329   10.9540 C.3     1  UNL1        0.2447
     32 C          66.7985   94.5942   10.0792 C.ar    1  UNL1        0.0714
     33 C          67.4108   94.5092    8.7124 C.ar    1  UNL1        0.1053
     34 N          67.6104   95.9070    8.2061 N.ar    1  UNL1       -0.2350
     35 C          67.1214   96.8560    9.2598 C.ar    1  UNL1        0.1343
     36 S          66.6196   96.0446   10.4175 S.2     1  UNL1       -0.0652
     37 C          64.7962   89.8241   14.5503 C.3     1  UNL1        0.0485
     38 C          64.2437   88.6189   15.2519 C.ar    1  UNL1       -0.0204
     39 C          63.4057   88.7871   16.4845 C.ar    1  UNL1       -0.0042
     40 C          62.8532   87.5820   17.1861 C.ar    1  UNL1       -0.0003
     41 C          63.1387   86.2085   16.6551 C.ar    1  UNL1       -0.0000
     42 C          63.9767   86.0402   15.4225 C.ar    1  UNL1       -0.0003
     43 C          64.5292   87.2454   14.7209 C.ar    1  UNL1       -0.0042
@<TRIPOS>BOND
     1    19    20    1
     2    20    17    1
     3    17     8    1
     4     8     9   ar
     5     9    10   ar
     6    10    11   ar
     7    11    12   ar
     8    12    13   ar
     9    13     5    1
    10     5     6    2
    11     5     7   am
    12     7    21    1
    13    21    22    1
    14    22    23    1
    15    22    24    1
    16     7     4    1
    17     4     1    1
    18     1     2    1
    19     1    25    1
    20    25    37    1
    21    37    38    1
    22    38    39   ar
    23    39    40   ar
    24    40    41   ar
    25    41    42   ar
    26    42    43   ar
    27    25    26    1
    28    26    27   am
    29    27    28    2
    30    27    30    1
    31    30    31    1
    32    31    32    1
    33    32    33   ar
    34    33    34   ar
    35    34    35   ar
    36    35    36   ar
    37    13    14   ar
    38    14    15   ar
    39    15    16   ar
    40    16     8   ar
    41    15    10   ar
    42    43    38   ar
    43    36    32   ar
    44    17    18    1
    45     2     3    1
    46    26    29    1
@<TRIPOS>MOLECULE
*****
 43 46 0 0 0
SMALL
GASTEIGER

@<TRIPOS>ATOM
      1 C          61.9618   89.3244   11.9633 C.3     1  UNL1        0.1484
      2 O          60.9497   90.0379   12.8097 O.3     1  UNL1       -0.3810
      3 H          61.4064   90.5974   13.4572 H       1  UNL1        0.2105
      4 C          63.4266   89.5439   12.2007 C.3     1  UNL1        0.1245
      5 C          64.1037   90.3890   14.5623 C.2     1  UNL1        0.2492
      6 O          64.5595   91.4978   15.4640 O.2     1  UNL1       -0.2699
      7 N          63.8824   90.6526   13.1024 N.am    1  UNL1       -0.2735
      8 C          63.9000   84.0598   15.3729 C.ar    1  UNL1        0.2891
      9 N          63.3015   84.8041   16.5295 N.ar    1  UNL1       -0.1948
     10 C          63.4005   86.2720   16.2374 C.ar    1  UNL1        0.1202
     11 C          62.9751   87.4813   17.0163 C.ar    1  UNL1        0.0225
     12 C          63.2095   88.8536   16.4579 C.ar    1  UNL1        0.0063
     13 C          63.8693   89.0166   15.1207 C.ar    1  UNL1        0.0567
     14 C          64.2947   87.8073   14.3418 C.ar    1  UNL1        0.0437
     15 C          64.0603   86.4350   14.9002 C.ar    1  UNL1        0.1662
     16 O          64.3690   85.0678   14.3659 O.2     1  UNL1       -0.4239
     17 N          64.0103   82.5693   15.2456 N.pl3   1  UNL1       -0.2884
     18 H          64.5587   82.0599   15.8851 H       1  UNL1        0.1511
     19 C          61.8004   81.6572   14.2286 C.3     1  UNL1        0.0231
     20 C          63.2849   81.8550   14.1441 C.3     1  UNL1        0.0911
     21 C          64.1168   92.0250   12.5440 C.3     1  UNL1        0.0937
     22 C          65.4561   92.3830   11.9714 C.3     1  UNL1        0.0199
     23 C          65.5811   92.7334   10.5183 C.3     1  UNL1        0.0018
     24 C          66.6706   92.3905   12.8519 C.3     1  UNL1        0.0018
     25 C          61.5093   88.3913   10.8795 C.3     1  UNL1        0.1075
     26 N          61.4055   88.8792    9.4648 N.am    1  UNL1       -0.2695
     27 C          60.2615   88.4375    8.6011 C.2     1  UNL1        0.4020
     28 O          59.2211   87.5080    9.1521 O.2     1  UNL1       -0.2264
     29 H          62.0884   89.4893    9.1032 H       1  UNL1        0.1528
     30 O          60.1578   88.9254    7.1864 O.3     1  UNL1       -0.4291
     31 C          58.8533   89.4558    6.6697 C.3     1  UNL1        0.2447
     32 C          58.8416   90.5744    5.6705 C.ar    1  UNL1        0.0714
     33 C          57.6247   91.2863    5.1581 C.ar    1  UNL1        0.1053
     34 N          58.0757   92.3295    4.1792 N.ar    1  UNL1       -0.2350
     35 C          59.5714   92.2624    4.0865 C.ar    1  UNL1        0.1343
     36 S          60.0447   91.1777    5.0082 S.2     1  UNL1       -0.0652
     37 C          61.1604   86.9705   11.2103 C.3     1  UNL1        0.0485
     38 C          62.0359   85.8517   10.7289 C.ar    1  UNL1       -0.0204
     39 C          62.4516   85.7910    9.2890 C.ar    1  UNL1       -0.0042
     40 C          63.3270   84.6722    8.8075 C.ar    1  UNL1       -0.0003
     41 C          63.7869   83.6140    9.7661 C.ar    1  UNL1       -0.0000
     42 C          63.3712   83.6747   11.2060 C.ar    1  UNL1       -0.0003
     43 C          62.4958   84.7935   11.6874 C.ar    1  UNL1       -0.0042
@<TRIPOS>BOND
     1    19    20    1
     2    20    17    1
     3    17     8    1
     4     8     9   ar
     5     9    10   ar
     6    10    11   ar
     7    11    12   ar
     8    12    13   ar
     9    13     5    1
    10     5     6    2
    11     5     7   am
    12     7    21    1
    13    21    22    1
    14    22    23    1
    15    22    24    1
    16     7     4    1
    17     4     1    1
    18     1     2    1
    19     1    25    1
    20    25    37    1
    21    37    38    1
    22    38    39   ar
    23    39    40   ar
    24    40    41   ar
    25    41    42   ar
    26    42    43   ar
    27    25    26    1
    28    26    27   am
    29    27    28    2
    30    27    30    1
    31    30    31    1
    32    31    32    1
    33    32    33   ar
    34    33    34   ar
    35    34    35   ar
    36    35    36   ar
    37    13    14   ar
    38    14    15   ar
    39    15    16   ar
    40    16     8   ar
    41    15    10   ar
    42    43    38   ar
    43    36    32   ar
    44    17    18    1
    45     2     3    1
    46    26    29    1
@<TRIPOS>MOLECULE
*****
 43 46 0 0 0
SMALL
GASTEIGER

@<TRIPOS>ATOM
      1 C          63.3440   89.9905   12.2547 C.3     1  UNL1        0.1484
      2 O          63.7267   91.0562   11.2710 O.3     1  UNL1       -0.3810
      3 H          63.3970   90.8171   10.3907 H       1  UNL1        0.2105
      4 C          62.5671   88.7916   11.7972 C.3     1  UNL1        0.1245
      5 C          61.0241   87.8248    9.9439 C.2     1  UNL1        0.2492
      6 O          59.8811   87.9922    8.9872 O.2     1  UNL1       -0.2699
      7 N          61.4241   88.9590   10.8404 N.am    1  UNL1       -0.2735
      8 C          63.4036   82.2137   11.8442 C.ar    1  UNL1        0.2891
      9 N          63.8672   82.5955   10.4697 N.ar    1  UNL1       -0.1948
     10 C          63.2535   83.9200   10.1247 C.ar    1  UNL1        0.1202
     11 C          63.3533   84.7848    8.9031 C.ar    1  UNL1        0.0225
     12 C          62.6102   86.0863    8.8429 C.ar    1  UNL1        0.0063
     13 C          61.7673   86.5232   10.0042 C.ar    1  UNL1        0.0567
     14 C          61.6674   85.6584   11.2258 C.ar    1  UNL1        0.0437
     15 C          62.4106   84.3569   11.2860 C.ar    1  UNL1        0.1662
     16 O          62.5033   83.3023   12.3487 O.2     1  UNL1       -0.4239
     17 N          63.7750   80.9630   12.5842 N.pl3   1  UNL1       -0.2884
     18 H          64.7226   80.7223   12.6995 H       1  UNL1        0.1511
     19 C          61.5449   80.6824   13.8873 C.3     1  UNL1        0.0231
     20 C          62.7026   80.0790   13.1486 C.3     1  UNL1        0.0911
     21 C          60.6809   90.2606   10.7801 C.3     1  UNL1        0.0937
     22 C          59.4315   90.4490   11.5884 C.3     1  UNL1        0.0199
     23 C          58.9348   89.3421   12.4705 C.3     1  UNL1        0.0018
     24 C          58.6786   91.7444   11.5147 C.3     1  UNL1        0.0018
     25 C          63.7381   90.1235   13.6959 C.3     1  UNL1        0.1075
     26 N          63.7775   88.9107   14.5777 N.am    1  UNL1       -0.2695
     27 C          63.3805   89.0189   16.0201 C.2     1  UNL1        0.4020
     28 O          62.9440   90.3399   16.5808 O.2     1  UNL1       -0.2264
     29 H          64.0639   88.0436   14.2097 H       1  UNL1        0.1528
     30 O          63.4199   87.8060   16.9019 O.3     1  UNL1       -0.4291
     31 C          62.6457   86.5782   16.5236 C.3     1  UNL1        0.2447
     32 C          63.3456   85.4202   15.8762 C.ar    1  UNL1        0.0714
     33 C          62.9424   83.9788   15.9757 C.ar    1  UNL1        0.1053
     34 N          63.9192   83.1680   15.1766 N.ar    1  UNL1       -0.2350
     35 C          64.9261   84.1082   14.5833 C.ar    1  UNL1        0.1343
     36 S          64.5716   85.5002   15.0157 S.2     1  UNL1       -0.0652
     37 C          64.0927   91.4693   14.2552 C.3     1  UNL1        0.0485
     38 C          65.5252   91.8073   14.5450 C.ar    1  UNL1       -0.0204
     39 C          65.9114   92.3454   15.8908 C.ar    1  UNL1       -0.0042
     40 C          67.3438   92.6834   16.1805 C.ar    1  UNL1       -0.0003
     41 C          68.3900   92.4833   15.1244 C.ar    1  UNL1       -0.0000
     42 C          68.0038   91.9452   13.7786 C.ar    1  UNL1       -0.0003
     43 C          66.5714   91.6072   13.4889 C.ar    1  UNL1       -0.0042
@<TRIPOS>BOND
     1    19    20    1
     2    20    17    1
     3    17     8    1
     4     8     9   ar
     5     9    10   ar
     6    10    11   ar
     7    11    12   ar
     8    12    13   ar
     9    13     5    1
    10     5     6    2
    11     5     7   am
    12     7    21    1
    13    21    22    1
    14    22    23    1
    15    22    24    1
    16     7     4    1
    17     4     1    1
    18     1     2    1
    19     1    25    1
    20    25    37    1
    21    37    38    1
    22    38    39   ar
    23    39    40   ar
    24    40    41   ar
    25    41    42   ar
    26    42    43   ar
    27    25    26    1
    28    26    27   am
    29    27    28    2
    30    27    30    1
    31    30    31    1
    32    31    32    1
    33    32    33   ar
    34    33    34   ar
    35    34    35   ar
    36    35    36   ar
    37    13    14   ar
    38    14    15   ar
    39    15    16   ar
    40    16     8   ar
    41    15    10   ar
    42    43    38   ar
    43    36    32   ar
    44    17    18    1
    45     2     3    1
    46    26    29    1
@<TRIPOS>MOLECULE
*****
 43 46 0 0 0
SMALL
GASTEIGER

@<TRIPOS>ATOM
      1 C          62.4912   85.6753   12.3306 C.3     1  UNL1        0.1484
      2 O          61.3801   84.9925   13.0715 O.3     1  UNL1       -0.3810
      3 H          61.7332   84.2253   13.5487 H       1  UNL1        0.2105
      4 C          63.8887   85.1361   12.4110 C.3     1  UNL1        0.1245
      5 C          64.1843   84.1299   14.7879 C.2     1  UNL1        0.2492
      6 O          64.4862   82.9579   15.6741 O.2     1  UNL1       -0.2699
      7 N          64.1905   83.9641   13.2972 N.am    1  UNL1       -0.2735
      8 C          63.8824   90.3987   15.9573 C.ar    1  UNL1        0.2891
      9 N          63.1242   89.5911   16.9686 N.ar    1  UNL1       -0.1948
     10 C          63.2602   88.1430   16.6019 C.ar    1  UNL1        0.1202
     11 C          62.7259   86.8928   17.2353 C.ar    1  UNL1        0.0225
     12 C          63.0339   85.5551   16.6306 C.ar    1  UNL1        0.0063
     13 C          63.8763   85.4677   15.3926 C.ar    1  UNL1        0.0567
     14 C          64.4106   86.7179   14.7592 C.ar    1  UNL1        0.0437
     15 C          64.1026   88.0556   15.3638 C.ar    1  UNL1        0.1662
     16 O          64.4871   89.4497   14.9655 O.2     1  UNL1       -0.4239
     17 N          64.0131   91.8929   15.9407 N.pl3   1  UNL1       -0.2884
     18 H          63.3921   92.4354   15.4028 H       1  UNL1        0.1511
     19 C          66.4865   92.6436   16.2026 C.3     1  UNL1        0.0231
     20 C          65.0899   92.5606   16.7436 C.3     1  UNL1        0.0911
     21 C          64.4986   82.6263   12.6925 C.3     1  UNL1        0.0937
     22 C          63.4404   81.8870   11.9285 C.3     1  UNL1        0.0199
     23 C          63.4429   81.9116   10.4288 C.3     1  UNL1        0.0018
     24 C          62.3796   81.1232   12.6644 C.3     1  UNL1        0.0018
     25 C          62.2050   86.8974   11.5093 C.3     1  UNL1        0.1075
     26 N          62.9985   88.1513   11.7287 N.am    1  UNL1       -0.2695
     27 C          62.3027   89.4193   12.1260 C.2     1  UNL1        0.4020
     28 O          60.8134   89.4336   12.3039 O.2     1  UNL1       -0.2264
     29 H          63.9760   88.1420   11.6119 H       1  UNL1        0.1528
     30 O          63.0963   90.6732   12.3454 O.3     1  UNL1       -0.4291
     31 C          63.8819   91.2709   11.2160 C.3     1  UNL1        0.2447
     32 C          64.9718   92.2610   11.5020 C.ar    1  UNL1        0.0714
     33 C          65.7454   92.3753   12.7820 C.ar    1  UNL1        0.1053
     34 N          66.7313   93.4955   12.6294 N.ar    1  UNL1       -0.2350
     35 C          66.5670   94.0735   11.2550 C.ar    1  UNL1        0.1343
     36 S          65.4795   93.3105   10.5582 S.2     1  UNL1       -0.0652
     37 C          61.1252   86.8656   10.4686 C.3     1  UNL1        0.0485
     38 C          61.3607   86.1625    9.1647 C.ar    1  UNL1       -0.0204
     39 C          60.2517   86.0527    8.1607 C.ar    1  UNL1       -0.0042
     40 C          60.4872   85.3496    6.8569 C.ar    1  UNL1       -0.0003
     41 C          61.8318   84.7562    6.5569 C.ar    1  UNL1       -0.0000
     42 C          62.9408   84.8660    7.5608 C.ar    1  UNL1       -0.0003
     43 C          62.7053   85.5692    8.8647 C.ar    1  UNL1       -0.0042
@<TRIPOS>BOND
     1    19    20    1
     2    20    17    1
     3    17     8    1
     4     8     9   ar
     5     9    10   ar
     6    10    11   ar
     7    11    12   ar
     8    12    13   ar
     9    13     5    1
    10     5     6    2
    11     5     7   am
    12     7    21    1
    13    21    22    1
    14    22    23    1
    15    22    24    1
    16     7     4    1
    17     4     1    1
    18     1     2    1
    19     1    25    1
    20    25    37    1
    21    37    38    1
    22    38    39   ar
    23    39    40   ar
    24    40    41   ar
    25    41    42   ar
    26    42    43   ar
    27    25    26    1
    28    26    27   am
    29    27    28    2
    30    27    30    1
    31    30    31    1
    32    31    32    1
    33    32    33   ar
    34    33    34   ar
    35    34    35   ar
    36    35    36   ar
    37    13    14   ar
    38    14    15   ar
    39    15    16   ar
    40    16     8   ar
    41    15    10   ar
    42    43    38   ar
    43    36    32   ar
    44    17    18    1
    45     2     3    1
    46    26    29    1
@<TRIPOS>MOLECULE
*****
 43 46 0 0 0
SMALL
GASTEIGER

@<TRIPOS>ATOM
      1 C          62.5011   86.2410    9.6538 C.3     1  UNL1        0.1484
      2 O          62.7480   85.7879    8.2453 O.3     1  UNL1       -0.3810
      3 H          62.8630   86.5619    7.6721 H       1  UNL1        0.2105
      4 C          62.4653   87.7058    9.9751 C.3     1  UNL1        0.1245
      5 C          61.0903   89.8293   10.5664 C.2     1  UNL1        0.2492
      6 O          59.7776   90.5529   10.6230 O.2     1  UNL1       -0.2699
      7 N          61.1526   88.4293   10.0316 N.am    1  UNL1       -0.2735
      8 C          65.9572   91.8739   14.1567 C.ar    1  UNL1        0.2891
      9 N          66.0235   92.3965   12.7523 N.ar    1  UNL1       -0.1948
     10 C          64.8416   91.8588   12.0013 C.ar    1  UNL1        0.1202
     11 C          64.3880   92.0373   10.5827 C.ar    1  UNL1        0.0225
     12 C          63.1376   91.3608   10.1045 C.ar    1  UNL1        0.0063
     13 C          62.3408   90.5058   11.0448 C.ar    1  UNL1        0.0567
     14 C          62.7944   90.3274   12.4633 C.ar    1  UNL1        0.0437
     15 C          64.0448   91.0039   12.9416 C.ar    1  UNL1        0.1662
     16 O          64.7343   91.0132   14.2737 O.2     1  UNL1       -0.4239
     17 N          66.9411   92.1614   15.2519 N.pl3   1  UNL1       -0.2884
     18 H          67.1045   91.4920   15.9550 H       1  UNL1        0.1511
     19 C          69.0137   93.5652   15.9472 C.3     1  UNL1        0.0231
     20 C          67.6758   93.4689   15.2757 C.3     1  UNL1        0.0911
     21 C          59.9021   87.7528    9.5533 C.3     1  UNL1        0.0937
     22 C          59.6038   87.6794    8.0851 C.3     1  UNL1        0.0199
     23 C          59.4872   88.9394    7.2796 C.3     1  UNL1        0.0018
     24 C          59.4220   86.3460    7.4224 C.3     1  UNL1        0.0018
     25 C          62.2900   85.2293   10.7409 C.3     1  UNL1        0.1075
     26 N          62.3532   83.7643   10.4248 N.am    1  UNL1       -0.2695
     27 C          63.6800   83.0679   10.3587 C.2     1  UNL1        0.4020
     28 O          64.9437   83.8363   10.6089 O.2     1  UNL1       -0.2264
     29 H          61.5238   83.2599   10.2606 H       1  UNL1        0.1528
     30 O          63.7432   81.6029   10.0426 O.3     1  UNL1       -0.4291
     31 C          63.0764   80.6107   10.9485 C.3     1  UNL1        0.2447
     32 C          62.8836   80.9325   12.4008 C.ar    1  UNL1        0.0714
     33 C          63.9688   81.0475   13.4300 C.ar    1  UNL1        0.1053
     34 N          63.3277   81.3819   14.7442 N.ar    1  UNL1       -0.2350
     35 C          61.8462   81.4736   14.5273 C.ar    1  UNL1        0.1343
     36 S          61.5718   81.1958   13.0789 S.2     1  UNL1       -0.0652
     37 C          62.0156   85.6826   12.1442 C.3     1  UNL1        0.0485
     38 C          63.1415   85.7985   13.1286 C.ar    1  UNL1       -0.0204
     39 C          63.5682   87.1484   13.6243 C.ar    1  UNL1       -0.0042
     40 C          64.6941   87.2643   14.6087 C.ar    1  UNL1       -0.0003
     41 C          65.3933   86.0305   15.0972 C.ar    1  UNL1       -0.0000
     42 C          64.9665   84.6807   14.6015 C.ar    1  UNL1       -0.0003
     43 C          63.8407   84.5647   13.6171 C.ar    1  UNL1       -0.0042
@<TRIPOS>BOND
     1    19    20    1
     2    20    17    1
     3    17     8    1
     4     8     9   ar
     5     9    10   ar
     6    10    11   ar
     7    11    12   ar
     8    12    13   ar
     9    13     5    1
    10     5     6    2
    11     5     7   am
    12     7    21    1
    13    21    22    1
    14    22    23    1
    15    22    24    1
    16     7     4    1
    17     4     1    1
    18     1     2    1
    19     1    25    1
    20    25    37    1
    21    37    38    1
    22    38    39   ar
    23    39    40   ar
    24    40    41   ar
    25    41    42   ar
    26    42    43   ar
    27    25    26    1
    28    26    27   am
    29    27    28    2
    30    27    30    1
    31    30    31    1
    32    31    32    1
    33    32    33   ar
    34    33    34   ar
    35    34    35   ar
    36    35    36   ar
    37    13    14   ar
    38    14    15   ar
    39    15    16   ar
    40    16     8   ar
    41    15    10   ar
    42    43    38   ar
    43    36    32   ar
    44    17    18    1
    45     2     3    1
    46    26    29    1
@<TRIPOS>MOLECULE
*****
 43 46 0 0 0
SMALL
GASTEIGER

@<TRIPOS>ATOM
      1 C          63.4580   89.6424   13.6021 C.3     1  UNL1        0.1484
      2 O          62.0484   89.8272   14.0804 O.3     1  UNL1       -0.3810
      3 H          61.5457   89.0118   13.9277 H       1  UNL1        0.2105
      4 C          63.8804   88.3352   12.9996 C.3     1  UNL1        0.1245
      5 C          62.9539   85.9130   13.1553 C.2     1  UNL1        0.2492
      6 O          62.7721   84.6387   13.9254 O.2     1  UNL1       -0.2699
      7 N          63.6986   87.0609   13.7698 N.am    1  UNL1       -0.2735
      8 C          59.7051   87.8712    8.0203 C.ar    1  UNL1        0.2891
      9 N          60.5502   86.6648    7.7366 N.ar    1  UNL1       -0.1948
     10 C          61.2652   86.2918    9.0014 C.ar    1  UNL1        0.1202
     11 C          62.2313   85.1897    9.3206 C.ar    1  UNL1        0.0225
     12 C          62.7941   85.0634   10.7052 C.ar    1  UNL1        0.0063
     13 C          62.3909   86.0393   11.7706 C.ar    1  UNL1        0.0567
     14 C          61.4249   87.1414   11.4514 C.ar    1  UNL1        0.0437
     15 C          60.8620   87.2677   10.0668 C.ar    1  UNL1        0.1662
     16 O          59.8978   88.2438    9.4605 O.2     1  UNL1       -0.4239
     17 N          58.8224   88.5804    7.0366 N.pl3   1  UNL1       -0.2884
     18 H          57.9040   88.2619    6.8805 H       1  UNL1        0.1511
     19 C          58.3901   90.6491    5.5254 C.3     1  UNL1        0.0231
     20 C          59.3388   89.7749    6.2907 C.3     1  UNL1        0.0911
     21 C          64.2615   86.9346   15.1544 C.3     1  UNL1        0.0937
     22 C          63.3675   87.1085   16.3462 C.3     1  UNL1        0.0199
     23 C          63.1325   88.4767   16.9143 C.3     1  UNL1        0.0018
     24 C          62.7083   85.9141   16.9700 C.3     1  UNL1        0.0018
     25 C          64.4454   90.7648   13.7262 C.3     1  UNL1        0.1075
     26 N          64.8294   91.5632   12.5157 N.am    1  UNL1       -0.2695
     27 C          63.8647   91.7090   11.3764 C.2     1  UNL1        0.4020
     28 O          62.5160   91.0564   11.4475 O.2     1  UNL1       -0.2264
     29 H          65.7146   91.9915   12.4691 H       1  UNL1        0.1528
     30 O          64.2487   92.5073   10.1659 O.3     1  UNL1       -0.4291
     31 C          65.1671   93.6852   10.3047 C.3     1  UNL1        0.2447
     32 C          66.6225   93.5448    9.9703 C.ar    1  UNL1        0.0714
     33 C          67.5225   94.6374    9.4737 C.ar    1  UNL1        0.1053
     34 N          68.8898   94.0552    9.2702 N.ar    1  UNL1       -0.2350
     35 C          68.8350   92.6027    9.6410 C.ar    1  UNL1        0.1343
     36 S          67.4337   92.2873   10.0736 S.2     1  UNL1       -0.0652
     37 C          65.0487   91.0888   15.0607 C.3     1  UNL1        0.0485
     38 C          66.3882   91.7597   15.1353 C.ar    1  UNL1       -0.0204
     39 C          67.4592   91.4081   14.1457 C.ar    1  UNL1       -0.0042
     40 C          68.7987   92.0790   14.2202 C.ar    1  UNL1       -0.0003
     41 C          69.0673   93.1014   15.2844 C.ar    1  UNL1       -0.0000
     42 C          67.9964   93.4529   16.2740 C.ar    1  UNL1       -0.0003
     43 C          66.6568   92.7821   16.1995 C.ar    1  UNL1       -0.0042
@<TRIPOS>BOND
     1    19    20    1
     2    20    17    1
     3    17     8    1
     4     8     9   ar
     5     9    10   ar
     6    10    11   ar
     7    11    12   ar
     8    12    13   ar
     9    13     5    1
    10     5     6    2
    11     5     7   am
    12     7    21    1
    13    21    22    1
    14    22    23    1
    15    22    24    1
    16     7     4    1
    17     4     1    1
    18     1     2    1
    19     1    25    1
    20    25    37    1
    21    37    38    1
    22    38    39   ar
    23    39    40   ar
    24    40    41   ar
    25    41    42   ar
    26    42    43   ar
    27    25    26    1
    28    26    27   am
    29    27    28    2
    30    27    30    1
    31    30    31    1
    32    31    32    1
    33    32    33   ar
    34    33    34   ar
    35    34    35   ar
    36    35    36   ar
    37    13    14   ar
    38    14    15   ar
    39    15    16   ar
    40    16     8   ar
    41    15    10   ar
    42    43    38   ar
    43    36    32   ar
    44    17    18    1
    45     2     3    1
    46    26    29    1
@<TRIPOS>MOLECULE
*****
 43 46 0 0 0
SMALL
GASTEIGER

@<TRIPOS>ATOM
      1 C          63.1582   90.3997   11.2760 C.3     1  UNL1        0.1484
      2 O          63.0285   91.4295   10.1931 O.3     1  UNL1       -0.3810
      3 H          62.5008   91.0675    9.4642 H       1  UNL1        0.2105
      4 C          62.5132   89.0552   11.1136 C.3     1  UNL1        0.1245
      5 C          60.7515   87.6314    9.8412 C.2     1  UNL1        0.2492
      6 O          59.4180   87.5162    9.1640 O.2     1  UNL1       -0.2699
      7 N          61.1798   88.9400   10.4364 N.am    1  UNL1       -0.2735
      8 C          63.9635   82.5112   11.8962 C.ar    1  UNL1        0.2891
      9 N          64.2685   82.8412   10.4651 N.ar    1  UNL1       -0.1948
     10 C          63.4668   84.0514   10.0874 C.ar    1  UNL1        0.1202
     11 C          63.3622   84.8268    8.8077 C.ar    1  UNL1        0.0225
     12 C          62.4572   86.0201    8.7256 C.ar    1  UNL1        0.0063
     13 C          61.6566   86.4380    9.9233 C.ar    1  UNL1        0.0567
     14 C          61.7611   85.6626   11.2031 C.ar    1  UNL1        0.0437
     15 C          62.6662   84.4693   11.2851 C.ar    1  UNL1        0.1662
     16 O          62.9732   83.5174   12.4030 O.2     1  UNL1       -0.4239
     17 N          64.5464   81.3745   12.6824 N.pl3   1  UNL1       -0.2884
     18 H          65.4757   81.0911   12.5229 H       1  UNL1        0.1511
     19 C          62.3278   80.2096   13.3683 C.3     1  UNL1        0.0231
     20 C          63.7136   80.6696   13.7117 C.3     1  UNL1        0.0911
     21 C          60.2747   90.1333   10.3543 C.3     1  UNL1        0.0937
     22 C          59.3173   90.4268   11.4711 C.3     1  UNL1        0.0199
     23 C          59.0435   89.3869   12.5169 C.3     1  UNL1        0.0018
     24 C          58.6338   91.7601   11.5422 C.3     1  UNL1        0.0018
     25 C          63.9329   90.7144   12.5213 C.3     1  UNL1        0.1075
     26 N          65.3805   91.0966   12.4276 N.am    1  UNL1       -0.2695
     27 C          65.7755   92.3798   11.7588 C.2     1  UNL1        0.4020
     28 O          64.7232   93.2808   11.1836 O.2     1  UNL1       -0.2264
     29 H          66.0712   90.5053   12.8051 H       1  UNL1        0.1528
     30 O          67.2230   92.7621   11.6651 O.3     1  UNL1       -0.4291
     31 C          68.2039   92.2377   12.6716 C.3     1  UNL1        0.2447
     32 C          67.9876   92.4940   14.1336 C.ar    1  UNL1        0.0714
     33 C          66.8707   93.2967   14.7323 C.ar    1  UNL1        0.1053
     34 N          67.0431   93.2915   16.2223 N.ar    1  UNL1       -0.2350
     35 C          68.2665   92.4855   16.5446 C.ar    1  UNL1        0.1343
     36 S          68.8502   91.9927   15.2537 S.2     1  UNL1       -0.0652
     37 C          63.2602   90.6468   13.8603 C.3     1  UNL1        0.0485
     38 C          63.4186   89.4268   14.7185 C.ar    1  UNL1       -0.0204
     39 C          62.8912   89.4240   16.1227 C.ar    1  UNL1       -0.0042
     40 C          63.0495   88.2040   16.9809 C.ar    1  UNL1       -0.0003
     41 C          63.7354   86.9868   16.4349 C.ar    1  UNL1       -0.0000
     42 C          64.2628   86.9897   15.0307 C.ar    1  UNL1       -0.0003
     43 C          64.1045   88.2097   14.1725 C.ar    1  UNL1       -0.0042
@<TRIPOS>BOND
     1    19    20    1
     2    20    17    1
     3    17     8    1
     4     8     9   ar
     5     9    10   ar
     6    10    11   ar
     7    11    12   ar
     8    12    13   ar
     9    13     5    1
    10     5     6    2
    11     5     7   am
    12     7    21    1
    13    21    22    1
    14    22    23    1
    15    22    24    1
    16     7     4    1
    17     4     1    1
    18     1     2    1
    19     1    25    1
    20    25    37    1
    21    37    38    1
    22    38    39   ar
    23    39    40   ar
    24    40    41   ar
    25    41    42   ar
    26    42    43   ar
    27    25    26    1
    28    26    27   am
    29    27    28    2
    30    27    30    1
    31    30    31    1
    32    31    32    1
    33    32    33   ar
    34    33    34   ar
    35    34    35   ar
    36    35    36   ar
    37    13    14   ar
    38    14    15   ar
    39    15    16   ar
    40    16     8   ar
    41    15    10   ar
    42    43    38   ar
    43    36    32   ar
    44    17    18    1
    45     2     3    1
    46    26    29    1
@<TRIPOS>MOLECULE
*****
 43 46 0 0 0
SMALL
GASTEIGER

@<TRIPOS>ATOM
      1 C          63.0523   90.8491   10.7350 C.3     1  UNL1        0.1484
      2 O          62.8963   91.9177    9.6939 O.3     1  UNL1       -0.3810
      3 H          63.7221   92.4213    9.6213 H       1  UNL1        0.2105
      4 C          64.3511   90.7031   11.4712 C.3     1  UNL1        0.1245
      5 C          65.1615   92.1015   13.5053 C.2     1  UNL1        0.2492
      6 O          65.8520   93.3140   14.0558 O.2     1  UNL1       -0.2699
      7 N          65.0415   91.9156   12.0217 N.am    1  UNL1       -0.2735
      8 C          63.3592   86.5987   16.1938 C.ar    1  UNL1        0.2891
      9 N          62.9834   87.7906   17.0234 N.ar    1  UNL1       -0.1948
     10 C          63.4503   89.0216   16.3045 C.ar    1  UNL1        0.1202
     11 C          63.3564   90.4793   16.6453 C.ar    1  UNL1        0.0225
     12 C          63.9268   91.5059   15.7123 C.ar    1  UNL1        0.0063
     13 C          64.5911   91.0748   14.4384 C.ar    1  UNL1        0.0567
     14 C          64.6851   89.6171   14.0976 C.ar    1  UNL1        0.0437
     15 C          64.1147   88.5905   15.0306 C.ar    1  UNL1        0.1662
     16 O          64.0583   87.0931   14.9622 O.2     1  UNL1       -0.4239
     17 N          63.0841   85.1644   16.5358 N.pl3   1  UNL1       -0.2884
     18 H          62.8775   84.9106   17.4643 H       1  UNL1        0.1511
     19 C          64.4280   83.7531   14.8175 C.3     1  UNL1        0.0231
     20 C          63.1237   84.1167   15.4630 C.3     1  UNL1        0.0911
     21 C          65.6119   92.9423   11.0886 C.3     1  UNL1        0.0937
     22 C          67.0168   92.7982   10.5832 C.3     1  UNL1        0.0199
     23 C          67.9562   91.8332   11.2437 C.3     1  UNL1        0.0018
     24 C          67.4824   93.6192    9.4173 C.3     1  UNL1        0.0018
     25 C          61.9095   89.9266   11.0399 C.3     1  UNL1        0.1075
     26 N          62.1156   88.7531   11.9513 N.am    1  UNL1       -0.2695
     27 C          62.5448   87.4314   11.3869 C.2     1  UNL1        0.4020
     28 O          62.7680   87.2830    9.9110 O.2     1  UNL1       -0.2264
     29 H          61.9691   88.8505   12.9200 H       1  UNL1        0.1528
     30 O          62.7509   86.2579   12.2983 O.3     1  UNL1       -0.4291
     31 C          62.0547   84.9592   12.0179 C.3     1  UNL1        0.2447
     32 C          62.8340   83.7873   11.4989 C.ar    1  UNL1        0.0714
     33 C          63.9053   83.8357   10.4499 C.ar    1  UNL1        0.1053
     34 N          64.4122   82.4396   10.2404 N.ar    1  UNL1       -0.2350
     35 C          63.6543   81.5283   11.1598 C.ar    1  UNL1        0.1343
     36 S          62.6789   82.3613   11.9376 S.2     1  UNL1       -0.0652
     37 C          60.5607   90.1774   10.4335 C.3     1  UNL1        0.0485
     38 C          60.0405   89.2688    9.3594 C.ar    1  UNL1       -0.0204
     39 C          59.6396   87.8630    9.6954 C.ar    1  UNL1       -0.0042
     40 C          59.1195   86.9544    8.6212 C.ar    1  UNL1       -0.0003
     41 C          59.0002   87.4515    7.2110 C.ar    1  UNL1       -0.0000
     42 C          59.4012   88.8573    6.8751 C.ar    1  UNL1       -0.0003
     43 C          59.9213   89.7660    7.9492 C.ar    1  UNL1       -0.0042
@<TRIPOS>BOND
     1    19    20    1
     2    20    17    1
     3    17     8    1
     4     8     9   ar
     5     9    10   ar
     6    10    11   ar
     7    11    12   ar
     8    12    13   ar
     9    13     5    1
    10     5     6    2
    11     5     7   am
    12     7    21    1
    13    21    22    1
    14    22    23    1
    15    22    24    1
    16     7     4    1
    17     4     1    1
    18     1     2    1
    19     1    25    1
    20    25    37    1
    21    37    38    1
    22    38    39   ar
    23    39    40   ar
    24    40    41   ar
    25    41    42   ar
    26    42    43   ar
    27    25    26    1
    28    26    27   am
    29    27    28    2
    30    27    30    1
    31    30    31    1
    32    31    32    1
    33    32    33   ar
    34    33    34   ar
    35    34    35   ar
    36    35    36   ar
    37    13    14   ar
    38    14    15   ar
    39    15    16   ar
    40    16     8   ar
    41    15    10   ar
    42    43    38   ar
    43    36    32   ar
    44    17    18    1
    45     2     3    1
    46    26    29    1
@<TRIPOS>MOLECULE
*****
 43 46 0 0 0
SMALL
GASTEIGER

@<TRIPOS>ATOM
      1 C          62.6795   86.0455   10.4224 C.3     1  UNL1        0.1484
      2 O          62.8898   85.8668    8.9480 O.3     1  UNL1       -0.3810
      3 H          62.8006   86.7238    8.5025 H       1  UNL1        0.2105
      4 C          62.3834   87.4069   10.9782 C.3     1  UNL1        0.1245
      5 C          61.1092   89.6449   10.6350 C.2     1  UNL1        0.2492
      6 O          59.8847   90.3873   10.1882 O.2     1  UNL1       -0.2699
      7 N          61.1589   88.1493   10.5314 N.am    1  UNL1       -0.2735
      8 C          65.4766   92.1720   14.5460 C.ar    1  UNL1        0.2891
      9 N          65.7080   92.5465   13.1120 N.ar    1  UNL1       -0.1948
     10 C          64.6331   91.9045   12.2860 C.ar    1  UNL1        0.1202
     11 C          64.3542   91.9226   10.8122 C.ar    1  UNL1        0.0225
     12 C          63.1796   91.1694   10.2619 C.ar    1  UNL1        0.0063
     13 C          62.2838   90.3981   11.1853 C.ar    1  UNL1        0.0567
     14 C          62.5627   90.3800   12.6591 C.ar    1  UNL1        0.0437
     15 C          63.7373   91.1332   13.2094 C.ar    1  UNL1        0.1662
     16 O          64.2586   91.2986   14.6061 O.2     1  UNL1       -0.4239
     17 N          66.3157   92.5965   15.7146 N.pl3   1  UNL1       -0.2884
     18 H          66.0089   92.4158   16.6324 H       1  UNL1        0.1511
     19 C          68.8868   92.7327   16.0627 C.3     1  UNL1        0.0231
     20 C          67.6225   93.2962   15.4848 C.3     1  UNL1        0.0911
     21 C          59.9843   87.3961    9.9810 C.3     1  UNL1        0.0937
     22 C          59.7879   87.2928    8.4975 C.3     1  UNL1        0.0199
     23 C          59.9959   85.9796    7.8031 C.3     1  UNL1        0.0018
     24 C          59.3834   88.5027    7.7084 C.3     1  UNL1        0.0018
     25 C          62.7653   84.8628   11.3410 C.3     1  UNL1        0.1075
     26 N          63.3437   85.0215   12.7159 N.am    1  UNL1       -0.2695
     27 C          64.5920   84.2810   13.0945 C.2     1  UNL1        0.4020
     28 O          65.2621   83.3819   12.0982 O.2     1  UNL1       -0.2264
     29 H          62.9039   85.6116   13.3698 H       1  UNL1        0.1528
     30 O          65.1704   84.4398   14.4694 O.3     1  UNL1       -0.4291
     31 C          64.2622   84.6337   15.6473 C.3     1  UNL1        0.2447
     32 C          63.8176   86.0136   16.0323 C.ar    1  UNL1        0.0714
     33 C          64.1638   87.2841   15.3137 C.ar    1  UNL1        0.1053
     34 N          63.5088   88.4210   16.0407 N.ar    1  UNL1       -0.2350
     35 C          62.7578   87.8533   17.2085 C.ar    1  UNL1        0.1343
     36 S          62.9487   86.3654   17.2033 S.2     1  UNL1       -0.0652
     37 C          62.2728   83.5214   10.8847 C.3     1  UNL1        0.0485
     38 C          62.2980   82.3535   11.8256 C.ar    1  UNL1       -0.0204
     39 C          62.7571   81.0101   11.3414 C.ar    1  UNL1       -0.0042
     40 C          62.7823   79.8421   12.2823 C.ar    1  UNL1       -0.0003
     41 C          62.3482   80.0175   13.7073 C.ar    1  UNL1       -0.0000
     42 C          61.8890   81.3609   14.1915 C.ar    1  UNL1       -0.0003
     43 C          61.8639   82.5289   13.2506 C.ar    1  UNL1       -0.0042
@<TRIPOS>BOND
     1    19    20    1
     2    20    17    1
     3    17     8    1
     4     8     9   ar
     5     9    10   ar
     6    10    11   ar
     7    11    12   ar
     8    12    13   ar
     9    13     5    1
    10     5     6    2
    11     5     7   am
    12     7    21    1
    13    21    22    1
    14    22    23    1
    15    22    24    1
    16     7     4    1
    17     4     1    1
    18     1     2    1
    19     1    25    1
    20    25    37    1
    21    37    38    1
    22    38    39   ar
    23    39    40   ar
    24    40    41   ar
    25    41    42   ar
    26    42    43   ar
    27    25    26    1
    28    26    27   am
    29    27    28    2
    30    27    30    1
    31    30    31    1
    32    31    32    1
    33    32    33   ar
    34    33    34   ar
    35    34    35   ar
    36    35    36   ar
    37    13    14   ar
    38    14    15   ar
    39    15    16   ar
    40    16     8   ar
    41    15    10   ar
    42    43    38   ar
    43    36    32   ar
    44    17    18    1
    45     2     3    1
    46    26    29    1
