@<TRIPOS>MOLECULE
*****
 55 62 0 0 0
SMALL
GASTEIGER

@<TRIPOS>ATOM
      1 C          63.0920   88.1132   12.9901 C.ar    1  UNL1        0.0558
      2 C          63.1993   89.5216   13.4950 C.ar    1  UNL1        0.0419
      3 C          64.0504   89.8265   14.6919 C.ar    1  UNL1        0.1456
      4 C          64.7943   88.7230   15.3839 C.ar    1  UNL1        0.0388
      5 C          64.6870   87.3146   14.8790 C.ar    1  UNL1        0.0179
      6 C          63.8359   87.0097   13.6822 C.ar    1  UNL1        0.0539
      7 N          60.9432   88.0636    9.7581 N.ar    1  UNL1       -0.1285
      8 N          60.9188   86.6145   10.1446 N.ar    1  UNL1       -0.0406
      9 N          61.7207   86.4567   11.4024 N.ar    1  UNL1       -0.1074
     10 C          62.2408   87.8083   11.7932 C.ar    1  UNL1        0.2075
     11 N          61.7603   88.8014   10.7770 N.ar    1  UNL1       -0.1253
     12 C          58.9205   89.8789    6.1715 C.ar    1  UNL1       -0.0207
     13 C          59.8117   90.7207    7.0360 C.ar    1  UNL1       -0.0026
     14 C          60.4859   90.1155    8.2316 C.ar    1  UNL1        0.0206
     15 C          60.2690   88.6687    8.5626 C.ar    1  UNL1        0.1045
     16 C          59.3779   87.8269    7.6981 C.ar    1  UNL1        0.0206
     17 C          58.7036   88.4320    6.5026 C.ar    1  UNL1       -0.0026
     18 C          58.2463   90.4840    4.9760 C.3     1  UNL1        0.0437
     19 C          58.5515   91.8977    4.5784 C.3     1  UNL1        0.0771
     20 C          63.1675   93.9201   -0.0963 C.ar    1  UNL1        0.1721
     21 C          63.3227   93.0831    1.1387 C.ar    1  UNL1        0.0356
     22 C          62.1299   92.7867    1.9987 C.ar    1  UNL1       -0.0202
     23 C          60.7819   93.3275    1.6236 C.ar    1  UNL1       -0.0068
     24 C          60.6268   94.1645    0.3885 C.ar    1  UNL1        0.0368
     25 C          61.8196   94.4609   -0.4714 C.ar    1  UNL1        0.1721
     26 C          59.5892   93.0311    2.4835 C.3     1  UNL1        0.0990
     27 N          59.7443   92.1941    3.7184 N.3     1  UNL1       -0.2683
     28 C          61.0923   91.6534    4.0935 C.3     1  UNL1        0.0771
     29 C          62.2850   91.9497    3.2336 C.3     1  UNL1        0.0435
     30 C          65.0446   95.5476   -0.8566 C.3     1  UNL1        0.2526
     31 O          64.3603   94.2165   -0.9563 O.3     1  UNL1       -0.4684
     32 O          61.6645   95.2979   -1.7065 O.3     1  UNL1       -0.4684
     33 C          61.4700   94.6387   -3.0397 C.3     1  UNL1        0.2526
     34 N          63.7286   85.6012   13.1773 N.am    1  UNL1       -0.2778
     35 C          63.0086   84.5661   13.9897 C.2     1  UNL1        0.2843
     36 O          62.3959   84.9393   15.3070 O.2     1  UNL1       -0.2665
     37 H          64.1307   85.3563   12.3127 H       1  UNL1        0.1553
     38 C          62.9013   83.1577   13.4849 C.ar    1  UNL1        0.2017
     39 C          62.6575   82.0328   14.4467 C.ar    1  UNL1        0.0843
     40 C          62.5502   80.6244   13.9420 C.ar    1  UNL1        0.2018
     41 O          62.3064   79.4994   14.9038 O.2     1  UNL1       -0.2864
     42 C          62.6866   80.3409   12.4753 C.ar    1  UNL1        0.0735
     43 C          62.5793   78.9324   11.9705 C.ar    1  UNL1        0.0062
     44 C          62.7158   78.6489   10.5039 C.ar    1  UNL1        0.0003
     45 C          62.9595   79.7738    9.5421 C.ar    1  UNL1        0.0031
     46 C          63.0669   81.1823   10.0469 C.ar    1  UNL1        0.0376
     47 C          62.9304   81.4658   11.5135 C.ar    1  UNL1        0.1485
     48 O          63.0377   82.8742   12.0182 O.2     1  UNL1       -0.4487
     49 O          64.1576   91.2349   15.1967 O.3     1  UNL1       -0.4519
     50 C          65.4575   91.9750   15.0842 C.ar    1  UNL1        0.1644
     51 C          66.2106   92.3607   16.3227 C.ar    1  UNL1        0.0407
     52 C          67.5104   93.1009   16.2102 C.ar    1  UNL1        0.0238
     53 C          68.0571   93.4553   14.8590 C.ar    1  UNL1        0.0991
     54 N          67.3039   93.0696   13.6205 N.ar    1  UNL1       -0.2391
     55 C          66.0042   92.3295   13.7330 C.ar    1  UNL1        0.1362
@<TRIPOS>BOND
     1    30    31    1
     2    31    20    1
     3    20    21   ar
     4    21    22   ar
     5    22    23   ar
     6    23    24   ar
     7    24    25   ar
     8    25    32    1
     9    32    33    1
    10    23    26    1
    11    26    27    1
    12    27    19    1
    13    19    18    1
    14    18    12    1
    15    12    13   ar
    16    13    14   ar
    17    14    15   ar
    18    15     7    1
    19     7     8   ar
    20     8     9   ar
    21     9    10   ar
    22    10     1    1
    23     1     2   ar
    24     2     3   ar
    25     3    49    1
    26    49    50    1
    27    50    51   ar
    28    51    52   ar
    29    52    53   ar
    30    53    54   ar
    31    54    55   ar
    32     3     4   ar
    33     4     5   ar
    34     5     6   ar
    35     6    34    1
    36    34    35   am
    37    35    36    2
    38    35    38    1
    39    38    39   ar
    40    39    40   ar
    41    40    41    2
    42    40    42   ar
    43    42    43   ar
    44    43    44   ar
    45    44    45   ar
    46    45    46   ar
    47    46    47   ar
    48    47    48   ar
    49    10    11   ar
    50    15    16   ar
    51    16    17   ar
    52    27    28    1
    53    28    29    1
    54    25    20   ar
    55    17    12   ar
    56    29    22    1
    57    11     7   ar
    58     6     1   ar
    59    48    38   ar
    60    55    50   ar
    61    47    42   ar
    62    34    37    1
@<TRIPOS>MOLECULE
*****
 55 62 0 0 0
SMALL
GASTEIGER

@<TRIPOS>ATOM
      1 C          63.0063   88.6930   12.4783 C.ar    1  UNL1        0.0558
      2 C          63.3699   90.1027   12.8395 C.ar    1  UNL1        0.0419
      3 C          64.2432   90.3707   14.0292 C.ar    1  UNL1        0.1456
      4 C          64.7530   89.2289   14.8578 C.ar    1  UNL1        0.0388
      5 C          64.3894   87.8192   14.4966 C.ar    1  UNL1        0.0179
      6 C          63.5160   87.5513   13.3069 C.ar    1  UNL1        0.0539
      7 N          60.8871   88.7194    9.2266 N.ar    1  UNL1       -0.1285
      8 N          60.6908   87.3060    9.6890 N.ar    1  UNL1       -0.0406
      9 N          61.4608   87.1241   10.9634 N.ar    1  UNL1       -0.1074
     10 C          62.1329   88.4251   11.2886 C.ar    1  UNL1        0.2075
     11 N          61.7783   89.4110   10.2152 N.ar    1  UNL1       -0.1253
     12 C          59.1133   90.5612    5.5237 C.ar    1  UNL1       -0.0207
     13 C          58.3264   89.5571    6.3127 C.ar    1  UNL1       -0.0026
     14 C          58.9177   88.9431    7.5470 C.ar    1  UNL1        0.0206
     15 C          60.2958   89.3333    7.9923 C.ar    1  UNL1        0.1045
     16 C          61.0828   90.3374    7.2034 C.ar    1  UNL1        0.0206
     17 C          60.4916   90.9514    5.9691 C.ar    1  UNL1       -0.0026
     18 C          58.5221   91.1751    4.2894 C.3     1  UNL1        0.0437
     19 C          58.9495   92.5458    3.8551 C.3     1  UNL1        0.0771
     20 C          61.7957   93.4731   -2.3328 C.ar    1  UNL1        0.1721
     21 C          62.4197   93.2099   -0.9944 C.ar    1  UNL1        0.0356
     22 C          61.5521   93.0439    0.2180 C.ar    1  UNL1       -0.0202
     23 C          60.0606   93.1410    0.0919 C.ar    1  UNL1       -0.0068
     24 C          59.4366   93.4042   -1.2465 C.ar    1  UNL1        0.0368
     25 C          60.3042   93.5702   -2.4589 C.ar    1  UNL1        0.1721
     26 C          59.1930   92.9750    1.3043 C.3     1  UNL1        0.0990
     27 N          59.8170   92.7118    2.6426 N.3     1  UNL1       -0.2683
     28 C          61.3086   92.6147    2.7687 C.3     1  UNL1        0.0771
     29 C          62.1761   92.7807    1.5564 C.3     1  UNL1        0.0435
     30 C          63.8434   92.7367   -3.7522 C.3     1  UNL1        0.2526
     31 O          62.6633   93.6391   -3.5452 O.3     1  UNL1       -0.4684
     32 O          59.6802   93.8334   -3.7973 O.3     1  UNL1       -0.4684
     33 C          58.2298   93.5240   -4.0226 C.3     1  UNL1        0.2526
     34 N          63.1524   86.1415   12.9457 N.am    1  UNL1       -0.2778
     35 C          63.9073   84.9942   13.5490 C.2     1  UNL1        0.2843
     36 O          65.0258   85.2567   14.5134 O.2     1  UNL1       -0.2665
     37 H          62.4183   85.9692   12.3128 H       1  UNL1        0.1553
     38 C          63.5437   83.5845   13.1879 C.ar    1  UNL1        0.2017
     39 C          63.0381   82.6465   14.2435 C.ar    1  UNL1        0.0843
     40 C          62.6745   81.2368   13.8825 C.ar    1  UNL1        0.2018
     41 O          62.1688   80.2987   14.9382 O.2     1  UNL1       -0.2864
     42 C          62.8166   80.7650   12.4657 C.ar    1  UNL1        0.0735
     43 C          62.4530   79.3552   12.1046 C.ar    1  UNL1        0.0062
     44 C          62.5950   78.8834   10.6878 C.ar    1  UNL1        0.0003
     45 C          63.1007   79.8214    9.6321 C.ar    1  UNL1        0.0031
     46 C          63.4643   81.2312    9.9932 C.ar    1  UNL1        0.0376
     47 C          63.3222   81.7030   11.4100 C.ar    1  UNL1        0.1485
     48 O          63.6858   83.1127   11.7711 O.2     1  UNL1       -0.4487
     49 O          64.6068   91.7804   14.3903 O.3     1  UNL1       -0.4519
     50 C          66.0410   92.1461   14.6341 C.ar    1  UNL1        0.1644
     51 C          66.4702   92.6395   15.9841 C.ar    1  UNL1        0.0407
     52 C          67.9043   93.0052   16.2279 C.ar    1  UNL1        0.0238
     53 C          68.9094   92.8775   15.1216 C.ar    1  UNL1        0.0991
     54 N          68.4801   92.3841   13.7717 N.ar    1  UNL1       -0.2391
     55 C          67.0461   92.0185   13.5279 C.ar    1  UNL1        0.1362
@<TRIPOS>BOND
     1    30    31    1
     2    31    20    1
     3    20    21   ar
     4    21    22   ar
     5    22    23   ar
     6    23    24   ar
     7    24    25   ar
     8    25    32    1
     9    32    33    1
    10    23    26    1
    11    26    27    1
    12    27    19    1
    13    19    18    1
    14    18    12    1
    15    12    13   ar
    16    13    14   ar
    17    14    15   ar
    18    15     7    1
    19     7     8   ar
    20     8     9   ar
    21     9    10   ar
    22    10     1    1
    23     1     2   ar
    24     2     3   ar
    25     3    49    1
    26    49    50    1
    27    50    51   ar
    28    51    52   ar
    29    52    53   ar
    30    53    54   ar
    31    54    55   ar
    32     3     4   ar
    33     4     5   ar
    34     5     6   ar
    35     6    34    1
    36    34    35   am
    37    35    36    2
    38    35    38    1
    39    38    39   ar
    40    39    40   ar
    41    40    41    2
    42    40    42   ar
    43    42    43   ar
    44    43    44   ar
    45    44    45   ar
    46    45    46   ar
    47    46    47   ar
    48    47    48   ar
    49    10    11   ar
    50    15    16   ar
    51    16    17   ar
    52    27    28    1
    53    28    29    1
    54    25    20   ar
    55    17    12   ar
    56    29    22    1
    57    11     7   ar
    58     6     1   ar
    59    48    38   ar
    60    55    50   ar
    61    47    42   ar
    62    34    37    1
@<TRIPOS>MOLECULE
*****
 55 62 0 0 0
SMALL
GASTEIGER

@<TRIPOS>ATOM
      1 C          63.0779   88.7118   12.3598 C.ar    1  UNL1        0.0558
      2 C          63.4484   90.1234   12.7061 C.ar    1  UNL1        0.0419
      3 C          64.2398   90.4080   13.9482 C.ar    1  UNL1        0.1456
      4 C          64.6608   89.2808   14.8439 C.ar    1  UNL1        0.0388
      5 C          64.2903   87.8692   14.4976 C.ar    1  UNL1        0.0179
      6 C          63.4989   87.5847   13.2556 C.ar    1  UNL1        0.0539
      7 N          61.0421   88.7235    9.0551 N.ar    1  UNL1       -0.1285
      8 N          61.0951   87.2553    9.3577 N.ar    1  UNL1       -0.0406
      9 N          61.8641   87.0722   10.6325 N.ar    1  UNL1       -0.1074
     10 C          62.2865   88.4273   11.1178 C.ar    1  UNL1        0.2075
     11 N          61.7784   89.4478   10.1429 N.ar    1  UNL1       -0.1253
     12 C          59.0278   90.6218    5.5071 C.ar    1  UNL1       -0.0207
     13 C          58.2750   89.6486    6.3650 C.ar    1  UNL1       -0.0026
     14 C          58.9465   89.0158    7.5477 C.ar    1  UNL1        0.0206
     15 C          60.3707   89.3563    7.8725 C.ar    1  UNL1        0.1045
     16 C          61.1236   90.3295    7.0146 C.ar    1  UNL1        0.0206
     17 C          60.4522   90.9623    5.8319 C.ar    1  UNL1       -0.0026
     18 C          58.3564   91.2546    4.3244 C.3     1  UNL1        0.0437
     19 C          58.7864   92.6131    3.8559 C.3     1  UNL1        0.0771
     20 C          63.2278   93.7011   -1.2763 C.ar    1  UNL1        0.1721
     21 C          61.8170   93.1918   -1.2900 C.ar    1  UNL1        0.0356
     22 C          61.0593   93.0471   -0.0035 C.ar    1  UNL1       -0.0202
     23 C          61.7125   93.4117    1.2967 C.ar    1  UNL1       -0.0068
     24 C          63.1234   93.9210    1.3103 C.ar    1  UNL1        0.0368
     25 C          63.8810   94.0657    0.0239 C.ar    1  UNL1        0.1721
     26 C          60.9549   93.2671    2.5831 C.3     1  UNL1        0.0990
     27 N          59.5441   92.7578    2.5694 N.3     1  UNL1       -0.2683
     28 C          58.8909   92.3932    1.2693 C.3     1  UNL1        0.0771
     29 C          59.6485   92.5379   -0.0172 C.3     1  UNL1        0.0435
     30 C          63.9391   92.7515   -3.5877 C.3     1  UNL1        0.2526
     31 O          63.9855   93.8458   -2.5628 O.3     1  UNL1       -0.4684
     32 O          65.2919   94.5750    0.0375 O.3     1  UNL1       -0.4684
     33 C          65.5565   96.0514    0.0216 C.3     1  UNL1        0.2526
     34 N          63.1284   86.1730   12.9092 N.am    1  UNL1       -0.2778
     35 C          63.9057   85.0294   13.4908 C.2     1  UNL1        0.2843
     36 O          65.0534   85.2975   14.4186 O.2     1  UNL1       -0.2665
     37 H          62.3751   85.9970   12.3003 H       1  UNL1        0.1553
     38 C          63.5352   83.6177   13.1445 C.ar    1  UNL1        0.2017
     39 C          63.0112   82.6977   14.2070 C.ar    1  UNL1        0.0843
     40 C          62.6408   81.2861   13.8608 C.ar    1  UNL1        0.2018
     41 O          62.1167   80.3660   14.9234 O.2     1  UNL1       -0.2864
     42 C          62.7943   80.7944   12.4520 C.ar    1  UNL1        0.0735
     43 C          62.4239   79.3826   12.1057 C.ar    1  UNL1        0.0062
     44 C          62.5774   78.8910   10.6969 C.ar    1  UNL1        0.0003
     45 C          63.1014   79.8110    9.6344 C.ar    1  UNL1        0.0031
     46 C          63.4719   81.2227    9.9807 C.ar    1  UNL1        0.0376
     47 C          63.3183   81.7144   11.3895 C.ar    1  UNL1        0.1485
     48 O          63.6888   83.1260   11.7357 O.2     1  UNL1       -0.4487
     49 O          64.6103   91.8197   14.2944 O.3     1  UNL1       -0.4519
     50 C          66.0420   92.1738   14.5680 C.ar    1  UNL1        0.1644
     51 C          66.4381   92.7118   15.9110 C.ar    1  UNL1        0.0407
     52 C          67.8698   93.0659   16.1845 C.ar    1  UNL1        0.0238
     53 C          68.9054   92.8821   15.1150 C.ar    1  UNL1        0.0991
     54 N          68.5092   92.3441   13.7720 N.ar    1  UNL1       -0.2391
     55 C          67.0776   91.9899   13.4985 C.ar    1  UNL1        0.1362
@<TRIPOS>BOND
     1    30    31    1
     2    31    20    1
     3    20    21   ar
     4    21    22   ar
     5    22    23   ar
     6    23    24   ar
     7    24    25   ar
     8    25    32    1
     9    32    33    1
    10    23    26    1
    11    26    27    1
    12    27    19    1
    13    19    18    1
    14    18    12    1
    15    12    13   ar
    16    13    14   ar
    17    14    15   ar
    18    15     7    1
    19     7     8   ar
    20     8     9   ar
    21     9    10   ar
    22    10     1    1
    23     1     2   ar
    24     2     3   ar
    25     3    49    1
    26    49    50    1
    27    50    51   ar
    28    51    52   ar
    29    52    53   ar
    30    53    54   ar
    31    54    55   ar
    32     3     4   ar
    33     4     5   ar
    34     5     6   ar
    35     6    34    1
    36    34    35   am
    37    35    36    2
    38    35    38    1
    39    38    39   ar
    40    39    40   ar
    41    40    41    2
    42    40    42   ar
    43    42    43   ar
    44    43    44   ar
    45    44    45   ar
    46    45    46   ar
    47    46    47   ar
    48    47    48   ar
    49    10    11   ar
    50    15    16   ar
    51    16    17   ar
    52    27    28    1
    53    28    29    1
    54    25    20   ar
    55    17    12   ar
    56    29    22    1
    57    11     7   ar
    58     6     1   ar
    59    48    38   ar
    60    55    50   ar
    61    47    42   ar
    62    34    37    1
@<TRIPOS>MOLECULE
*****
 55 62 0 0 0
SMALL
GASTEIGER

@<TRIPOS>ATOM
      1 C          62.8438   85.5508   13.0971 C.ar    1  UNL1        0.0558
      2 C          62.3104   84.2469   13.6121 C.ar    1  UNL1        0.0419
      3 C          62.5213   83.8647   15.0472 C.ar    1  UNL1        0.1456
      4 C          63.2656   84.7865   15.9673 C.ar    1  UNL1        0.0388
      5 C          63.7989   86.0903   15.4522 C.ar    1  UNL1        0.0179
      6 C          63.5880   86.4725   14.0171 C.ar    1  UNL1        0.0539
      7 N          61.7257   86.9490    9.6532 N.ar    1  UNL1       -0.1285
      8 N          62.8911   86.0932    9.2540 N.ar    1  UNL1       -0.0406
      9 N          63.4518   85.4652   10.4955 N.ar    1  UNL1       -0.1074
     10 C          62.6329   85.9330   11.6620 C.ar    1  UNL1        0.2075
     11 N          61.5661   86.8500   11.1414 N.ar    1  UNL1       -0.1253
     12 C          59.1589   89.3857    6.8740 C.ar    1  UNL1       -0.0207
     13 C          59.2288   87.8955    6.7173 C.ar    1  UNL1       -0.0026
     14 C          60.0845   87.0833    7.6437 C.ar    1  UNL1        0.0206
     15 C          60.8701   87.7612    8.7268 C.ar    1  UNL1        0.1045
     16 C          60.8001   89.2514    8.8836 C.ar    1  UNL1        0.0206
     17 C          59.9445   90.0636    7.9572 C.ar    1  UNL1       -0.0026
     18 C          58.3033   90.1979    5.9476 C.3     1  UNL1        0.0437
     19 C          58.7038   91.5989    5.5916 C.3     1  UNL1        0.0771
     20 C          62.7732   93.4475    0.3693 C.ar    1  UNL1        0.1721
     21 C          63.0272   92.5452    1.5403 C.ar    1  UNL1        0.0356
     22 C          61.9463   92.3086    2.5532 C.ar    1  UNL1       -0.0202
     23 C          60.6115   92.9744    2.3950 C.ar    1  UNL1       -0.0068
     24 C          60.3575   93.8767    1.2239 C.ar    1  UNL1        0.0368
     25 C          61.4384   94.1133    0.2111 C.ar    1  UNL1        0.1721
     26 C          59.5307   92.7378    3.4078 C.3     1  UNL1        0.0990
     27 N          59.7847   91.8355    4.5788 N.3     1  UNL1       -0.2683
     28 C          61.1195   91.1698    4.7370 C.3     1  UNL1        0.0771
     29 C          62.2003   91.4063    3.7242 C.3     1  UNL1        0.0435
     30 C          64.7401   94.8889   -0.5274 C.3     1  UNL1        0.2526
     31 O          63.8540   93.6841   -0.6436 O.3     1  UNL1       -0.4684
     32 O          61.1844   95.0156   -0.9600 O.3     1  UNL1       -0.4684
     33 C          60.7521   94.4354   -2.2740 C.3     1  UNL1        0.2526
     34 N          64.1214   87.7765   13.5020 N.am    1  UNL1       -0.2778
     35 C          64.1118   88.9910   14.3824 C.2     1  UNL1        0.2843
     36 O          63.5688   88.9015   15.7778 O.2     1  UNL1       -0.2665
     37 H          64.4778   87.8352   12.5862 H       1  UNL1        0.1553
     38 C          64.6452   90.2949   13.8674 C.ar    1  UNL1        0.2017
     39 C          65.4536   91.1822   14.7669 C.ar    1  UNL1        0.0843
     40 C          65.9870   92.4861   14.2520 C.ar    1  UNL1        0.2018
     41 O          66.7954   93.3735   15.1515 O.2     1  UNL1       -0.2864
     42 C          65.7119   92.9027   12.8375 C.ar    1  UNL1        0.0735
     43 C          66.2454   94.2068   12.3225 C.ar    1  UNL1        0.0062
     44 C          65.9703   94.6234   10.9080 C.ar    1  UNL1        0.0003
     45 C          65.1619   93.7361   10.0085 C.ar    1  UNL1        0.0031
     46 C          64.6285   92.4320   10.5235 C.ar    1  UNL1        0.0376
     47 C          64.9035   92.0154   11.9380 C.ar    1  UNL1        0.1485
     48 O          64.3702   90.7115   12.4529 O.2     1  UNL1       -0.4487
     49 O          61.9879   82.5608   15.5622 O.3     1  UNL1       -0.4519
     50 C          61.9346   81.3635   14.6602 C.ar    1  UNL1        0.1644
     51 C          63.1671   80.9193   13.9297 C.ar    1  UNL1        0.0407
     52 C          63.1138   79.7220   13.0277 C.ar    1  UNL1        0.0238
     53 C          61.8278   78.9689   12.8561 C.ar    1  UNL1        0.0991
     54 N          60.5953   79.4132   13.5865 N.ar    1  UNL1       -0.2391
     55 C          60.6486   80.6105   14.4885 C.ar    1  UNL1        0.1362
@<TRIPOS>BOND
     1    30    31    1
     2    31    20    1
     3    20    21   ar
     4    21    22   ar
     5    22    23   ar
     6    23    24   ar
     7    24    25   ar
     8    25    32    1
     9    32    33    1
    10    23    26    1
    11    26    27    1
    12    27    19    1
    13    19    18    1
    14    18    12    1
    15    12    13   ar
    16    13    14   ar
    17    14    15   ar
    18    15     7    1
    19     7     8   ar
    20     8     9   ar
    21     9    10   ar
    22    10     1    1
    23     1     2   ar
    24     2     3   ar
    25     3    49    1
    26    49    50    1
    27    50    51   ar
    28    51    52   ar
    29    52    53   ar
    30    53    54   ar
    31    54    55   ar
    32     3     4   ar
    33     4     5   ar
    34     5     6   ar
    35     6    34    1
    36    34    35   am
    37    35    36    2
    38    35    38    1
    39    38    39   ar
    40    39    40   ar
    41    40    41    2
    42    40    42   ar
    43    42    43   ar
    44    43    44   ar
    45    44    45   ar
    46    45    46   ar
    47    46    47   ar
    48    47    48   ar
    49    10    11   ar
    50    15    16   ar
    51    16    17   ar
    52    27    28    1
    53    28    29    1
    54    25    20   ar
    55    17    12   ar
    56    29    22    1
    57    11     7   ar
    58     6     1   ar
    59    48    38   ar
    60    55    50   ar
    61    47    42   ar
    62    34    37    1
@<TRIPOS>MOLECULE
*****
 55 62 0 0 0
SMALL
GASTEIGER

@<TRIPOS>ATOM
      1 C          59.9936   88.8257    9.1643 C.ar    1  UNL1        0.0558
      2 C          59.5441   89.8359    8.1508 C.ar    1  UNL1        0.0419
      3 C          59.1425   89.3912    6.7757 C.ar    1  UNL1        0.1456
      4 C          59.1904   87.9363    6.4141 C.ar    1  UNL1        0.0388
      5 C          59.6399   86.9260    7.4276 C.ar    1  UNL1        0.0179
      6 C          60.0415   87.3707    8.8027 C.ar    1  UNL1        0.0539
      7 N          61.7326   89.9609   12.4434 N.ar    1  UNL1       -0.1285
      8 N          60.2940   89.9484   12.8677 N.ar    1  UNL1       -0.0406
      9 N          59.4674   89.5216   11.6910 N.ar    1  UNL1       -0.1074
     10 C          60.3953   89.2704   10.5394 C.ar    1  UNL1        0.2075
     11 N          61.7952   89.5419   11.0045 N.ar    1  UNL1       -0.1253
     12 C          65.2443   91.0623   15.0328 C.ar    1  UNL1       -0.0207
     13 C          65.2645   91.3799   13.5669 C.ar    1  UNL1       -0.0026
     14 C          64.0939   91.0127   12.7038 C.ar    1  UNL1        0.0206
     15 C          62.9032   90.3280   13.3065 C.ar    1  UNL1        0.1045
     16 C          62.8830   90.0105   14.7724 C.ar    1  UNL1        0.0206
     17 C          64.0535   90.3776   15.6355 C.ar    1  UNL1       -0.0026
     18 C          66.4149   91.4294   15.8959 C.3     1  UNL1        0.0437
     19 C          67.4849   92.3354   15.3628 C.3     1  UNL1        0.0771
     20 C          67.2518   94.5536    8.8608 C.ar    1  UNL1        0.1721
     21 C          66.6977   95.1480   10.1216 C.ar    1  UNL1        0.0356
     22 C          66.8945   94.4448   11.4320 C.ar    1  UNL1       -0.0202
     23 C          67.6454   93.1473   11.4814 C.ar    1  UNL1       -0.0068
     24 C          68.1995   92.5528   10.2206 C.ar    1  UNL1        0.0368
     25 C          68.0027   93.2560    8.9103 C.ar    1  UNL1        0.1721
     26 C          67.8422   92.4441   12.7917 C.3     1  UNL1        0.0990
     27 N          67.2881   93.0385   14.0524 N.3     1  UNL1       -0.2683
     28 C          66.5372   94.3361   14.0030 C.3     1  UNL1        0.0771
     29 C          66.3404   95.0393   12.6927 C.3     1  UNL1        0.0435
     30 C          66.2391   96.5139    7.4891 C.3     1  UNL1        0.2526
     31 O          67.0550   95.2567    7.5505 O.3     1  UNL1       -0.4684
     32 O          68.5568   92.6616    7.6494 O.3     1  UNL1       -0.4684
     33 C          69.6208   91.6068    7.7220 C.3     1  UNL1        0.2526
     34 N          60.4910   86.3604    9.8163 N.am    1  UNL1       -0.2778
     35 C          61.9528   86.0725    9.9910 C.2     1  UNL1        0.2843
     36 O          62.9649   86.7949    9.1522 O.2     1  UNL1       -0.2665
     37 H          59.8267   85.8862   10.3668 H       1  UNL1        0.1553
     38 C          62.4024   85.0622   11.0045 C.ar    1  UNL1        0.2017
     39 C          63.0277   85.5166   12.2899 C.ar    1  UNL1        0.0843
     40 C          63.4773   84.5064   13.3035 C.ar    1  UNL1        0.2018
     41 O          64.1027   84.9608   14.5890 O.2     1  UNL1       -0.2864
     42 C          63.3015   83.0418   13.0315 C.ar    1  UNL1        0.0735
     43 C          63.7511   82.0315   14.0451 C.ar    1  UNL1        0.0062
     44 C          63.5753   80.5669   13.7732 C.ar    1  UNL1        0.0003
     45 C          62.9499   80.1125   12.4878 C.ar    1  UNL1        0.0031
     46 C          62.5003   81.1228   11.4741 C.ar    1  UNL1        0.0376
     47 C          62.6761   82.5874   11.7461 C.ar    1  UNL1        0.1485
     48 O          62.2265   83.5976   10.7326 O.2     1  UNL1       -0.4487
     49 O          58.6930   90.4016    5.7622 O.3     1  UNL1       -0.4519
     50 C          59.6976   91.0632    4.8661 C.ar    1  UNL1        0.1644
     51 C          61.1161   90.5760    4.8412 C.ar    1  UNL1        0.0407
     52 C          62.1207   91.2377    3.9451 C.ar    1  UNL1        0.0238
     53 C          61.7069   92.3865    3.0739 C.ar    1  UNL1        0.0991
     54 N          60.2884   92.8736    3.0988 N.ar    1  UNL1       -0.2391
     55 C          59.2838   92.2121    3.9949 C.ar    1  UNL1        0.1362
@<TRIPOS>BOND
     1    30    31    1
     2    31    20    1
     3    20    21   ar
     4    21    22   ar
     5    22    23   ar
     6    23    24   ar
     7    24    25   ar
     8    25    32    1
     9    32    33    1
    10    23    26    1
    11    26    27    1
    12    27    19    1
    13    19    18    1
    14    18    12    1
    15    12    13   ar
    16    13    14   ar
    17    14    15   ar
    18    15     7    1
    19     7     8   ar
    20     8     9   ar
    21     9    10   ar
    22    10     1    1
    23     1     2   ar
    24     2     3   ar
    25     3    49    1
    26    49    50    1
    27    50    51   ar
    28    51    52   ar
    29    52    53   ar
    30    53    54   ar
    31    54    55   ar
    32     3     4   ar
    33     4     5   ar
    34     5     6   ar
    35     6    34    1
    36    34    35   am
    37    35    36    2
    38    35    38    1
    39    38    39   ar
    40    39    40   ar
    41    40    41    2
    42    40    42   ar
    43    42    43   ar
    44    43    44   ar
    45    44    45   ar
    46    45    46   ar
    47    46    47   ar
    48    47    48   ar
    49    10    11   ar
    50    15    16   ar
    51    16    17   ar
    52    27    28    1
    53    28    29    1
    54    25    20   ar
    55    17    12   ar
    56    29    22    1
    57    11     7   ar
    58     6     1   ar
    59    48    38   ar
    60    55    50   ar
    61    47    42   ar
    62    34    37    1
@<TRIPOS>MOLECULE
*****
 55 62 0 0 0
SMALL
GASTEIGER

@<TRIPOS>ATOM
      1 C          63.1865   84.0535   12.3661 C.ar    1  UNL1        0.0558
      2 C          62.8429   82.6184   12.6351 C.ar    1  UNL1        0.0419
      3 C          63.2062   81.9939   13.9496 C.ar    1  UNL1        0.1456
      4 C          63.9130   82.8045   14.9952 C.ar    1  UNL1        0.0388
      5 C          64.2565   84.2396   14.7263 C.ar    1  UNL1        0.0179
      6 C          63.8933   84.8641   13.4118 C.ar    1  UNL1        0.0539
      7 N          61.8370   86.1418    9.3856 N.ar    1  UNL1       -0.1285
      8 N          62.6914   85.1365    8.6719 N.ar    1  UNL1       -0.0406
      9 N          63.3009   84.2319    9.7015 N.ar    1  UNL1       -0.1074
     10 C          62.8232   84.6781   11.0516 C.ar    1  UNL1        0.2075
     11 N          61.9185   85.8584   10.8564 N.ar    1  UNL1       -0.1253
     12 C          59.4488   89.4302    7.4537 C.ar    1  UNL1       -0.0207
     13 C          60.3484   89.7387    8.6136 C.ar    1  UNL1       -0.0026
     14 C          61.1445   88.6425    9.2576 C.ar    1  UNL1        0.0206
     15 C          61.0410   87.2379    8.7416 C.ar    1  UNL1        0.1045
     16 C          60.1413   86.9294    7.5817 C.ar    1  UNL1        0.0206
     17 C          59.3452   88.0255    6.9377 C.ar    1  UNL1       -0.0026
     18 C          58.6527   90.5263    6.8097 C.3     1  UNL1        0.0437
     19 C          58.5432   90.5952    5.3153 C.3     1  UNL1        0.0771
     20 C          62.6224   94.2532    1.1646 C.ar    1  UNL1        0.1721
     21 C          62.9332   93.1216    2.0989 C.ar    1  UNL1        0.0356
     22 C          61.8356   92.4900    2.9030 C.ar    1  UNL1       -0.0202
     23 C          60.4274   92.9900    2.7728 C.ar    1  UNL1       -0.0068
     24 C          60.1167   94.1216    1.8385 C.ar    1  UNL1        0.0368
     25 C          61.2142   94.7532    1.0344 C.ar    1  UNL1        0.1721
     26 C          59.3300   92.3584    3.5769 C.3     1  UNL1        0.0990
     27 N          59.6407   91.2268    4.5112 N.3     1  UNL1       -0.2683
     28 C          61.0489   90.7268    4.6414 C.3     1  UNL1        0.0771
     29 C          62.1464   91.3584    3.8373 C.3     1  UNL1        0.0435
     30 C          65.1164   94.3434    0.4421 C.3     1  UNL1        0.2526
     31 O          63.7199   94.8849    0.3604 O.3     1  UNL1       -0.4684
     32 O          60.9035   95.8849    0.1000 O.3     1  UNL1       -0.4684
     33 C          60.0611   95.6427   -1.1172 C.3     1  UNL1        0.2526
     34 N          64.2368   86.2993   13.1429 N.am    1  UNL1       -0.2778
     35 C          64.0244   87.3337   14.2082 C.2     1  UNL1        0.2843
     36 O          63.4684   86.9329   15.5425 O.2     1  UNL1       -0.2665
     37 H          64.6018   86.5624   12.2672 H       1  UNL1        0.1553
     38 C          64.3679   88.7689   13.9394 C.ar    1  UNL1        0.2017
     39 C          63.6778   89.5107   12.8333 C.ar    1  UNL1        0.0843
     40 C          64.0212   90.9458   12.5644 C.ar    1  UNL1        0.2018
     41 O          63.3311   91.6877   11.4583 O.2     1  UNL1       -0.2864
     42 C          65.0549   91.6391   13.4016 C.ar    1  UNL1        0.0735
     43 C          65.3984   93.0743   13.1327 C.ar    1  UNL1        0.0062
     44 C          66.4321   93.7677   13.9699 C.ar    1  UNL1        0.0003
     45 C          67.1222   93.0258   15.0759 C.ar    1  UNL1        0.0031
     46 C          66.7787   91.5906   15.3448 C.ar    1  UNL1        0.0376
     47 C          65.7450   90.8973   14.5077 C.ar    1  UNL1        0.1485
     48 O          65.4016   89.4622   14.7766 O.2     1  UNL1       -0.4487
     49 O          62.8626   80.5587   14.2184 O.3     1  UNL1       -0.4519
     50 C          61.4277   80.1221   14.2386 C.ar    1  UNL1        0.1644
     51 C          60.3322   81.1466   14.2558 C.ar    1  UNL1        0.0407
     52 C          58.8972   80.7099   14.2759 C.ar    1  UNL1        0.0238
     53 C          58.5579   79.2488   14.2789 C.ar    1  UNL1        0.0991
     54 N          59.6535   78.2243   14.2617 N.ar    1  UNL1       -0.2391
     55 C          61.0883   78.6609   14.2416 C.ar    1  UNL1        0.1362
@<TRIPOS>BOND
     1    30    31    1
     2    31    20    1
     3    20    21   ar
     4    21    22   ar
     5    22    23   ar
     6    23    24   ar
     7    24    25   ar
     8    25    32    1
     9    32    33    1
    10    23    26    1
    11    26    27    1
    12    27    19    1
    13    19    18    1
    14    18    12    1
    15    12    13   ar
    16    13    14   ar
    17    14    15   ar
    18    15     7    1
    19     7     8   ar
    20     8     9   ar
    21     9    10   ar
    22    10     1    1
    23     1     2   ar
    24     2     3   ar
    25     3    49    1
    26    49    50    1
    27    50    51   ar
    28    51    52   ar
    29    52    53   ar
    30    53    54   ar
    31    54    55   ar
    32     3     4   ar
    33     4     5   ar
    34     5     6   ar
    35     6    34    1
    36    34    35   am
    37    35    36    2
    38    35    38    1
    39    38    39   ar
    40    39    40   ar
    41    40    41    2
    42    40    42   ar
    43    42    43   ar
    44    43    44   ar
    45    44    45   ar
    46    45    46   ar
    47    46    47   ar
    48    47    48   ar
    49    10    11   ar
    50    15    16   ar
    51    16    17   ar
    52    27    28    1
    53    28    29    1
    54    25    20   ar
    55    17    12   ar
    56    29    22    1
    57    11     7   ar
    58     6     1   ar
    59    48    38   ar
    60    55    50   ar
    61    47    42   ar
    62    34    37    1
@<TRIPOS>MOLECULE
*****
 55 62 0 0 0
SMALL
GASTEIGER

@<TRIPOS>ATOM
      1 C          63.4455   89.8461   12.2200 C.ar    1  UNL1        0.0558
      2 C          63.9418   91.2612   12.2539 C.ar    1  UNL1        0.0419
      3 C          64.8866   91.6989   13.3336 C.ar    1  UNL1        0.1456
      4 C          65.3352   90.7216   14.3793 C.ar    1  UNL1        0.0388
      5 C          64.8390   89.3065   14.3453 C.ar    1  UNL1        0.0179
      6 C          63.8941   88.8688   13.2657 C.ar    1  UNL1        0.0539
      7 N          61.1185   89.4025    9.1453 N.ar    1  UNL1       -0.1285
      8 N          60.9748   88.0668    9.8126 N.ar    1  UNL1       -0.0406
      9 N          61.8291   88.0704   11.0456 N.ar    1  UNL1       -0.1074
     10 C          62.5007   89.4084   11.1404 C.ar    1  UNL1        0.2075
     11 N          62.0615   90.2316    9.9659 N.ar    1  UNL1       -0.1253
     12 C          59.0785   90.6953    5.3483 C.ar    1  UNL1       -0.0207
     13 C          60.4851   91.1333    5.6306 C.ar    1  UNL1       -0.0026
     14 C          61.1651   90.7024    6.8964 C.ar    1  UNL1        0.0206
     15 C          60.4385   89.8334    7.8797 C.ar    1  UNL1        0.1045
     16 C          59.0319   89.3954    7.5974 C.ar    1  UNL1        0.0206
     17 C          58.3519   89.8264    6.3317 C.ar    1  UNL1       -0.0026
     18 C          58.3985   91.1262    4.0827 C.3     1  UNL1        0.0437
     19 C          58.6237   92.5076    3.5432 C.3     1  UNL1        0.0771
     20 C          63.2695   93.7693   -1.3634 C.ar    1  UNL1        0.1721
     21 C          61.8520   93.2872   -1.4539 C.ar    1  UNL1        0.0356
     22 C          61.0449   93.0923   -0.2046 C.ar    1  UNL1       -0.0202
     23 C          61.6554   93.3795    1.1351 C.ar    1  UNL1       -0.0068
     24 C          63.0730   93.8615    1.2255 C.ar    1  UNL1        0.0368
     25 C          63.8800   94.0564   -0.0237 C.ar    1  UNL1        0.1721
     26 C          60.8483   93.1846    2.3844 C.3     1  UNL1        0.0990
     27 N          59.4308   92.7025    2.2939 N.3     1  UNL1       -0.2683
     28 C          58.8203   92.4154    0.9542 C.3     1  UNL1        0.0771
     29 C          59.6274   92.6103   -0.2951 C.3     1  UNL1        0.0435
     30 C          64.0326   95.2771   -3.3368 C.3     1  UNL1        0.2526
     31 O          64.0767   93.9642   -2.6127 O.3     1  UNL1       -0.4684
     32 O          65.2976   94.5385    0.0667 O.3     1  UNL1       -0.4684
     33 C          65.6015   96.0021   -0.0579 C.3     1  UNL1        0.2526
     34 N          63.3978   87.4536   13.2318 N.am    1  UNL1       -0.2778
     35 C          64.1733   86.3701   13.9209 C.2     1  UNL1        0.2843
     36 O          65.4450   86.7018   14.6439 O.2     1  UNL1       -0.2665
     37 H          62.5632   87.2359   12.7572 H       1  UNL1        0.1553
     38 C          63.6771   84.9550   13.8870 C.ar    1  UNL1        0.2017
     39 C          63.0265   84.3591   15.1001 C.ar    1  UNL1        0.0843
     40 C          62.5303   82.9440   15.0662 C.ar    1  UNL1        0.2018
     41 O          61.8797   82.3481   16.2794 O.2     1  UNL1       -0.2864
     42 C          62.6847   82.1248   13.8192 C.ar    1  UNL1        0.0735
     43 C          62.1884   80.7096   13.7854 C.ar    1  UNL1        0.0062
     44 C          62.3428   79.8903   12.5383 C.ar    1  UNL1        0.0003
     45 C          62.9933   80.4862   11.3252 C.ar    1  UNL1        0.0031
     46 C          63.4896   81.9014   11.3591 C.ar    1  UNL1        0.0376
     47 C          63.3352   82.7207   12.6061 C.ar    1  UNL1        0.1485
     48 O          63.8314   84.1357   12.6399 O.2     1  UNL1       -0.4487
     49 O          65.3828   93.1141   13.3674 O.3     1  UNL1       -0.4519
     50 C          66.0460   93.7055   12.1589 C.ar    1  UNL1        0.1644
     51 C          66.6953   92.8098   11.1460 C.ar    1  UNL1        0.0407
     52 C          67.3585   93.4012    9.9375 C.ar    1  UNL1        0.0238
     53 C          67.3723   94.8884    9.7419 C.ar    1  UNL1        0.0991
     54 N          66.7229   95.7840   10.7550 N.ar    1  UNL1       -0.2391
     55 C          66.0598   95.1927   11.9634 C.ar    1  UNL1        0.1362
@<TRIPOS>BOND
     1    30    31    1
     2    31    20    1
     3    20    21   ar
     4    21    22   ar
     5    22    23   ar
     6    23    24   ar
     7    24    25   ar
     8    25    32    1
     9    32    33    1
    10    23    26    1
    11    26    27    1
    12    27    19    1
    13    19    18    1
    14    18    12    1
    15    12    13   ar
    16    13    14   ar
    17    14    15   ar
    18    15     7    1
    19     7     8   ar
    20     8     9   ar
    21     9    10   ar
    22    10     1    1
    23     1     2   ar
    24     2     3   ar
    25     3    49    1
    26    49    50    1
    27    50    51   ar
    28    51    52   ar
    29    52    53   ar
    30    53    54   ar
    31    54    55   ar
    32     3     4   ar
    33     4     5   ar
    34     5     6   ar
    35     6    34    1
    36    34    35   am
    37    35    36    2
    38    35    38    1
    39    38    39   ar
    40    39    40   ar
    41    40    41    2
    42    40    42   ar
    43    42    43   ar
    44    43    44   ar
    45    44    45   ar
    46    45    46   ar
    47    46    47   ar
    48    47    48   ar
    49    10    11   ar
    50    15    16   ar
    51    16    17   ar
    52    27    28    1
    53    28    29    1
    54    25    20   ar
    55    17    12   ar
    56    29    22    1
    57    11     7   ar
    58     6     1   ar
    59    48    38   ar
    60    55    50   ar
    61    47    42   ar
    62    34    37    1
