@<TRIPOS>MOLECULE
*****
 39 43 0 0 0
SMALL
GASTEIGER

@<TRIPOS>ATOM
      1 C          60.3963   91.9981    3.5780 C.3     1  UNL1        0.0251
      2 C          58.9377   92.1571    3.8898 C.3     1  UNL1        0.0217
      3 C          58.3348   91.4238    5.0511 C.3     1  UNL1        0.0727
      4 N          59.1904   90.5315    5.9006 N.3     1  UNL1       -0.2689
      5 C          60.6490   90.3725    5.5888 C.3     1  UNL1        0.0727
      6 C          61.2519   91.1058    4.4275 C.3     1  UNL1        0.0217
      7 C          62.2053   94.1980    0.0940 C.ar    1  UNL1        0.0537
      8 C          60.7143   94.1162    0.2370 C.ar    1  UNL1        0.0042
      9 C          60.1114   93.3829    1.3983 C.ar    1  UNL1       -0.0041
     10 C          60.9993   92.7314    2.4166 C.ar    1  UNL1       -0.0224
     11 C          62.4902   92.8132    2.2736 C.ar    1  UNL1       -0.0041
     12 C          63.0932   93.5464    1.1123 C.ar    1  UNL1        0.0042
     13 N          63.9128   94.2995   -1.8615 N.am    1  UNL1       -0.2794
     14 C          62.8082   94.9313   -1.0674 C.2     1  UNL1        0.2495
     15 O          62.3065   96.2964   -1.4345 O.2     1  UNL1       -0.2698
     16 H          64.2421   93.4036   -1.6205 H       1  UNL1        0.1552
     17 N          65.9174   96.4794   -1.3819 N.pl3   1  UNL1       -0.3560
     18 C          65.5181   96.1227   -2.7830 C.ar    1  UNL1        0.0552
     19 C          66.1210   96.8560   -3.9444 C.ar    1  UNL1        0.0153
     20 C          65.7216   96.4994   -5.3456 C.ar    1  UNL1        0.0013
     21 C          64.7193   95.4095   -5.5854 C.ar    1  UNL1        0.0014
     22 C          64.1164   94.6762   -4.4241 C.ar    1  UNL1        0.0159
     23 C          64.5158   95.0329   -3.0229 C.ar    1  UNL1        0.0636
     24 H          66.5752   97.1947   -1.2244 H       1  UNL1        0.1424
     25 H          65.5217   95.9981   -0.6196 H       1  UNL1        0.1424
     26 C          58.5874   89.7982    7.0620 C.3     1  UNL1        0.0991
     27 C          59.4111   88.8114    7.8352 C.ar    1  UNL1       -0.0061
     28 C          59.3520   87.3525    7.4913 C.ar    1  UNL1       -0.0028
     29 C          60.1756   86.3658    8.2645 C.ar    1  UNL1        0.0042
     30 C          61.0584   86.8379    9.3817 C.ar    1  UNL1        0.0533
     31 C          61.1174   88.2967    9.7255 C.ar    1  UNL1        0.0042
     32 C          60.2938   89.2835    8.9523 C.ar    1  UNL1       -0.0028
     33 C          61.8820   85.8512   10.1549 C.2     1  UNL1        0.2458
     34 O          61.7920   85.8087   11.6516 O.2     1  UNL1       -0.2701
     35 N          62.7958   84.9069    9.4314 N.am    1  UNL1       -0.3025
     36 H          62.8549   84.9347    8.4491 H       1  UNL1        0.1497
     37 C          63.6195   83.9201   10.2046 C.3     1  UNL1        0.0720
     38 C          64.3002   82.5867   10.2979 C.3     1  UNL1        0.0213
     39 C          64.3654   83.5444   11.4506 C.3     1  UNL1        0.0213
@<TRIPOS>BOND
     1    17    18    1
     2    18    19   ar
     3    19    20   ar
     4    20    21   ar
     5    21    22   ar
     6    22    23   ar
     7    23    13    1
     8    13    14   am
     9    14    15    2
    10    14     7    1
    11     7     8   ar
    12     8     9   ar
    13     9    10   ar
    14    10     1    1
    15     1     2    1
    16     2     3    1
    17     3     4    1
    18     4    26    1
    19    26    27    1
    20    27    28   ar
    21    28    29   ar
    22    29    30   ar
    23    30    33    1
    24    33    34    2
    25    33    35   am
    26    35    37    1
    27    37    38    1
    28    38    39    1
    29    30    31   ar
    30    31    32   ar
    31     4     5    1
    32     5     6    1
    33    10    11   ar
    34    11    12   ar
    35    23    18   ar
    36    12     7   ar
    37     6     1    1
    38    32    27   ar
    39    39    37    1
    40    17    24    1
    41    17    25    1
    42    13    16    1
    43    35    36    1
@<TRIPOS>MOLECULE
*****
 39 43 0 0 0
SMALL
GASTEIGER

@<TRIPOS>ATOM
      1 C          59.8166   90.1376    6.2423 C.3     1  UNL1        0.0251
      2 C          60.8987   90.6892    5.3621 C.3     1  UNL1        0.0217
      3 C          60.5467   91.5918    4.2170 C.3     1  UNL1        0.0727
      4 N          59.1126   91.9428    3.9521 N.3     1  UNL1       -0.2689
      5 C          58.0305   91.3912    4.8323 C.3     1  UNL1        0.0727
      6 C          58.3825   90.4886    5.9774 C.3     1  UNL1        0.0217
      7 C          60.8726   87.4297    9.6777 C.ar    1  UNL1        0.0537
      8 C          61.2458   88.8817    9.7251 C.ar    1  UNL1        0.0042
      9 C          60.8939   89.7843    8.5800 C.ar    1  UNL1       -0.0041
     10 C          60.1686   89.2349    7.3875 C.ar    1  UNL1       -0.0224
     11 C          59.7953   87.7829    7.3401 C.ar    1  UNL1       -0.0041
     12 C          60.1473   86.8803    8.4852 C.ar    1  UNL1        0.0042
     13 N          62.2926   85.4869   10.6571 N.am    1  UNL1       -0.2794
     14 C          61.2246   86.5270   10.8229 C.2     1  UNL1        0.2495
     15 O          60.5086   86.6645   12.1337 O.2     1  UNL1       -0.2698
     16 H          62.7625   85.3966    9.7968 H       1  UNL1        0.1552
     17 N          63.4327   86.6405   13.1809 N.pl3   1  UNL1       -0.3560
     18 C          63.2147   85.1611   13.0642 C.ar    1  UNL1        0.0552
     19 C          63.5667   84.2584   14.2092 C.ar    1  UNL1        0.0153
     20 C          63.3486   82.7789   14.0925 C.ar    1  UNL1        0.0013
     21 C          62.7786   82.2021   12.8307 C.ar    1  UNL1        0.0014
     22 C          62.4266   83.1048   11.6856 C.ar    1  UNL1        0.0159
     23 C          62.6446   84.5842   11.8023 C.ar    1  UNL1        0.0636
     24 H          63.8068   87.0191   14.0091 H       1  UNL1        0.1424
     25 H          63.2017   87.2330   12.4293 H       1  UNL1        0.1424
     26 C          58.7606   92.8455    2.8069 C.3     1  UNL1        0.0991
     27 C          59.7726   93.1285    1.7365 C.ar    1  UNL1       -0.0061
     28 C          59.7991   92.2946    0.4899 C.ar    1  UNL1       -0.0028
     29 C          60.8111   92.5777   -0.5805 C.ar    1  UNL1        0.0042
     30 C          61.7967   93.6947   -0.4042 C.ar    1  UNL1        0.0533
     31 C          61.7703   94.5285    0.8424 C.ar    1  UNL1        0.0042
     32 C          60.7582   94.2455    1.9127 C.ar    1  UNL1       -0.0028
     33 C          62.8087   93.9777   -1.4746 C.2     1  UNL1        0.2458
     34 O          63.7636   95.1241   -1.3196 O.2     1  UNL1       -0.2701
     35 N          62.8659   93.1143   -2.6999 N.am    1  UNL1       -0.3025
     36 H          62.2392   92.3619   -2.8016 H       1  UNL1        0.1497
     37 C          63.8779   93.3974   -3.7702 C.3     1  UNL1        0.0720
     38 C          64.6742   94.3787   -4.5783 C.3     1  UNL1        0.0213
     39 C          64.8346   92.9064   -4.8160 C.3     1  UNL1        0.0213
@<TRIPOS>BOND
     1    17    18    1
     2    18    19   ar
     3    19    20   ar
     4    20    21   ar
     5    21    22   ar
     6    22    23   ar
     7    23    13    1
     8    13    14   am
     9    14    15    2
    10    14     7    1
    11     7     8   ar
    12     8     9   ar
    13     9    10   ar
    14    10     1    1
    15     1     2    1
    16     2     3    1
    17     3     4    1
    18     4    26    1
    19    26    27    1
    20    27    28   ar
    21    28    29   ar
    22    29    30   ar
    23    30    33    1
    24    33    34    2
    25    33    35   am
    26    35    37    1
    27    37    38    1
    28    38    39    1
    29    30    31   ar
    30    31    32   ar
    31     4     5    1
    32     5     6    1
    33    10    11   ar
    34    11    12   ar
    35    23    18   ar
    36    12     7   ar
    37     6     1    1
    38    32    27   ar
    39    39    37    1
    40    17    24    1
    41    17    25    1
    42    13    16    1
    43    35    36    1
@<TRIPOS>MOLECULE
*****
 39 43 0 0 0
SMALL
GASTEIGER

@<TRIPOS>ATOM
      1 C          60.0949   91.8058    3.7555 C.3     1  UNL1        0.0251
      2 C          58.6904   91.8465    4.2804 C.3     1  UNL1        0.0217
      3 C          58.3144   91.0294    5.4808 C.3     1  UNL1        0.0727
      4 N          59.3430   90.1716    6.1562 N.3     1  UNL1       -0.2689
      5 C          60.7475   90.1310    5.6313 C.3     1  UNL1        0.0727
      6 C          61.1235   90.9481    4.4309 C.3     1  UNL1        0.0217
      7 C          61.2227   94.2572    0.1542 C.ar    1  UNL1        0.0537
      8 C          62.2888   93.7458    1.0772 C.ar    1  UNL1        0.0042
      9 C          61.9129   92.9287    2.2776 C.ar    1  UNL1       -0.0041
     10 C          60.4709   92.6230    2.5550 C.ar    1  UNL1       -0.0224
     11 C          59.4048   93.1344    1.6321 C.ar    1  UNL1       -0.0041
     12 C          59.7806   93.9515    0.4317 C.ar    1  UNL1        0.0042
     13 N          62.1653   94.4038   -2.2624 N.am    1  UNL1       -0.2794
     14 C          61.5986   95.0743   -1.0462 C.2     1  UNL1        0.2495
     15 O          61.4078   96.5621   -1.0304 O.2     1  UNL1       -0.2698
     16 H          62.2905   93.4273   -2.2727 H       1  UNL1        0.1552
     17 N          64.9625   95.4497   -2.5488 N.pl3   1  UNL1       -0.3560
     18 C          63.9398   95.7439   -3.6060 C.ar    1  UNL1        0.0552
     19 C          64.3157   96.5610   -4.8064 C.ar    1  UNL1        0.0153
     20 C          63.2930   96.8551   -5.8636 C.ar    1  UNL1        0.0013
     21 C          61.8945   96.3322   -5.7204 C.ar    1  UNL1        0.0014
     22 C          61.5186   95.5151   -4.5200 C.ar    1  UNL1        0.0159
     23 C          62.5413   95.2209   -3.4628 C.ar    1  UNL1        0.0636
     24 H          65.8804   95.7929   -2.6429 H       1  UNL1        0.1424
     25 H          64.7157   94.9134   -1.7610 H       1  UNL1        0.1424
     26 C          58.9670   89.3545    7.3567 C.3     1  UNL1        0.0991
     27 C          59.8872   89.2923    8.5397 C.ar    1  UNL1       -0.0061
     28 C          60.8561   88.1554    8.6773 C.ar    1  UNL1       -0.0028
     29 C          61.7762   88.0932    9.8603 C.ar    1  UNL1        0.0042
     30 C          61.7275   89.1679   10.9056 C.ar    1  UNL1        0.0533
     31 C          60.7587   90.3047   10.7680 C.ar    1  UNL1        0.0042
     32 C          59.8385   90.3669    9.5850 C.ar    1  UNL1       -0.0028
     33 C          62.6476   89.1057   12.0886 C.2     1  UNL1        0.2458
     34 O          63.2646   87.7991   12.4911 O.2     1  UNL1       -0.2701
     35 N          62.9509   90.3503   12.8692 N.am    1  UNL1       -0.3025
     36 H          62.5460   91.2079   12.6051 H       1  UNL1        0.1497
     37 C          63.8710   90.2881   14.0522 C.3     1  UNL1        0.0720
     38 C          65.1084   90.7528   14.7612 C.3     1  UNL1        0.0213
     39 C          64.2273   89.7157   15.3921 C.3     1  UNL1        0.0213
@<TRIPOS>BOND
     1    17    18    1
     2    18    19   ar
     3    19    20   ar
     4    20    21   ar
     5    21    22   ar
     6    22    23   ar
     7    23    13    1
     8    13    14   am
     9    14    15    2
    10    14     7    1
    11     7     8   ar
    12     8     9   ar
    13     9    10   ar
    14    10     1    1
    15     1     2    1
    16     2     3    1
    17     3     4    1
    18     4    26    1
    19    26    27    1
    20    27    28   ar
    21    28    29   ar
    22    29    30   ar
    23    30    33    1
    24    33    34    2
    25    33    35   am
    26    35    37    1
    27    37    38    1
    28    38    39    1
    29    30    31   ar
    30    31    32   ar
    31     4     5    1
    32     5     6    1
    33    10    11   ar
    34    11    12   ar
    35    23    18   ar
    36    12     7   ar
    37     6     1    1
    38    32    27   ar
    39    39    37    1
    40    17    24    1
    41    17    25    1
    42    13    16    1
    43    35    36    1
