@<TRIPOS>MOLECULE
*****
 42 46 0 0 0
SMALL
GASTEIGER

@<TRIPOS>ATOM
      1 C          63.1227   88.5372   13.0545 C.3     1  UNL1        0.1243
      2 N          64.0256   88.4673   14.2502 N.3     1  UNL1       -0.2823
      3 C          64.7750   87.2845   14.7883 C.3     1  UNL1        0.1560
      4 C          64.8067   85.8796   14.2634 C.2     1  UNL1        0.2457
      5 O          65.7008   85.0572   15.1433 O.2     1  UNL1       -0.2730
      6 N          64.0967   85.3106   13.0709 N.am    1  UNL1       -0.2533
      7 C          63.1797   86.0058   12.1087 C.ar    1  UNL1        0.0518
      8 C          62.6801   85.0662   11.0516 C.ar    1  UNL1        0.0146
      9 C          61.7470   85.5625    9.9872 C.ar    1  UNL1        0.0013
     10 C          61.3136   86.9985    9.9799 C.ar    1  UNL1       -0.0002
     11 C          61.8132   87.9382   11.0370 C.ar    1  UNL1       -0.0014
     12 C          62.7462   87.4418   12.1013 C.ar    1  UNL1        0.0118
     13 H          63.4433   88.7764   15.0285 H       1  UNL1        0.1243
     14 C          62.2057   89.2325   12.0922 C.ar    1  UNL1       -0.0019
     15 C          60.7670   89.4542   12.4543 C.ar    1  UNL1       -0.0026
     16 C          59.8501   90.1494   11.4921 C.ar    1  UNL1       -0.0003
     17 C          60.3717   90.6229   10.1679 C.ar    1  UNL1       -0.0000
     18 C          61.8105   90.4012    9.8058 C.ar    1  UNL1       -0.0003
     19 C          62.7274   89.7060   10.7680 C.ar    1  UNL1       -0.0026
     20 C          63.0910   89.9421   13.5793 C.3     1  UNL1        0.2224
     21 C          62.8166   90.1938   15.0323 C.2     1  UNL1        0.0919
     22 O          61.8248   89.3413   15.7669 O.co2   1  UNL1       -0.5455
     23 O          63.5338   91.2981   15.7507 O.co2   1  UNL1       -0.5455
     24 O          63.3338   91.0951   12.6511 O.3     1  UNL1       -0.4716
     25 C          68.0713   91.9959   14.5864 C.3     1  UNL1        0.0311
     26 C          67.0865   92.1018   13.4599 C.ar    1  UNL1       -0.0192
     27 C          67.4857   92.7641   12.1745 C.ar    1  UNL1       -0.0083
     28 C          66.5009   92.8700   11.0480 C.ar    1  UNL1       -0.0192
     29 C          66.9001   93.5322    9.7626 C.3     1  UNL1        0.0311
     30 C          65.1170   92.3137   11.2069 C.ar    1  UNL1        0.0326
     31 C          64.7179   91.6514   12.4923 C.ar    1  UNL1        0.1384
     32 C          65.7026   91.5455   13.6188 C.ar    1  UNL1        0.0326
     33 C          64.3352   83.8537   12.8055 C.3     1  UNL1        0.1292
     34 C          63.2839   82.8446   13.1612 C.ar    1  UNL1        0.0531
     35 C          62.5028   82.9919   14.4332 C.ar    1  UNL1        0.1422
     36 F          62.6420   84.0791   15.4573 F       1  UNL1       -0.2043
     37 C          61.4515   81.9829   14.7890 C.ar    1  UNL1        0.0591
     38 C          61.1814   80.8264   13.8726 C.ar    1  UNL1        0.1446
     39 F          60.1300   79.8173   14.2284 F       1  UNL1       -0.2040
     40 C          61.9624   80.6791   12.6006 C.ar    1  UNL1        0.0591
     41 C          63.0137   81.6881   12.2449 C.ar    1  UNL1        0.1422
     42 F          63.7949   81.5408   10.9728 F       1  UNL1       -0.2043
@<TRIPOS>UNITY_ATOM_ATTR
22 1
charge -1
@<TRIPOS>BOND
     1    25    26    1
     2    26    27   ar
     3    27    28   ar
     4    28    29    1
     5    28    30   ar
     6    30    31   ar
     7    31    24    1
     8    20    24    1
     9    20    21    1
    10    21    22   ar
    11    21    23   ar
    12    20     1    1
    13     1    14    1
    14    14    15   ar
    15    15    16   ar
    16    16    17   ar
    17    17    18   ar
    18    18    19   ar
    19     1     2    1
    20     2     3    1
    21     3     4    1
    22     4     5    2
    23     4     6   am
    24     6    33    1
    25    33    34    1
    26    34    35   ar
    27    35    36    1
    28    35    37   ar
    29    37    38   ar
    30    38    39    1
    31    38    40   ar
    32    40    41   ar
    33    41    42    1
    34     6     7    1
    35     7     8   ar
    36     8     9   ar
    37     9    10   ar
    38    10    11   ar
    39    11    12   ar
    40    31    32   ar
    41    32    26   ar
    42    12     1    1
    43    19    14   ar
    44    41    34   ar
    45    12     7   ar
    46     2    13    1
@<TRIPOS>MOLECULE
*****
 42 46 0 0 0
SMALL
GASTEIGER

@<TRIPOS>ATOM
      1 C          63.1214   88.5386   13.0349 C.3     1  UNL1        0.1243
      2 N          64.0370   88.4827   14.2218 N.3     1  UNL1       -0.2823
      3 C          64.7908   87.3060   14.7668 C.3     1  UNL1        0.1560
      4 C          64.8153   85.8945   14.2596 C.2     1  UNL1        0.2457
      5 O          65.7179   85.0822   15.1403 O.2     1  UNL1       -0.2730
      6 N          64.0919   85.3112   13.0821 N.am    1  UNL1       -0.2533
      7 C          63.1654   85.9952   12.1210 C.ar    1  UNL1        0.0518
      8 C          62.6535   85.0428   11.0814 C.ar    1  UNL1        0.0146
      9 C          61.7096   85.5267   10.0208 C.ar    1  UNL1        0.0013
     10 C          61.2777   86.9631    9.9998 C.ar    1  UNL1       -0.0002
     11 C          61.7897   87.9155   11.0394 C.ar    1  UNL1       -0.0014
     12 C          62.7335   87.4316   12.1000 C.ar    1  UNL1        0.0118
     13 H          63.4634   88.8025   15.0022 H       1  UNL1        0.1243
     14 C          62.1949   89.2227   12.0737 C.ar    1  UNL1       -0.0019
     15 C          60.7618   89.4556   12.4505 C.ar    1  UNL1       -0.0026
     16 C          59.8354   90.1397   11.4894 C.ar    1  UNL1       -0.0003
     17 C          60.3420   90.5907   10.1516 C.ar    1  UNL1       -0.0000
     18 C          61.7752   90.3578    9.7748 C.ar    1  UNL1       -0.0003
     19 C          62.7016   89.6737   10.7359 C.ar    1  UNL1       -0.0026
     20 C          63.0970   89.9500   13.5421 C.3     1  UNL1        0.2224
     21 C          62.8395   90.2206   14.9948 C.2     1  UNL1        0.0919
     22 O          61.8368   89.3950   15.7453 O.co2   1  UNL1       -0.5455
     23 O          63.5847   91.3167   15.6971 O.co2   1  UNL1       -0.5455
     24 O          63.3300   91.0909   12.5965 O.3     1  UNL1       -0.4716
     25 C          66.8702   93.5735    9.7149 C.3     1  UNL1        0.0311
     26 C          66.4763   92.9083   11.0003 C.ar    1  UNL1       -0.0192
     27 C          67.4586   92.8193   12.1305 C.ar    1  UNL1       -0.0083
     28 C          67.0647   92.1541   13.4159 C.ar    1  UNL1       -0.0192
     29 C          68.0470   92.0651   14.5461 C.3     1  UNL1        0.0311
     30 C          65.6885   91.5780   13.5712 C.ar    1  UNL1        0.0326
     31 C          64.7062   91.6670   12.4411 C.ar    1  UNL1        0.1384
     32 C          65.1001   92.3322   11.1557 C.ar    1  UNL1        0.0326
     33 C          64.3260   83.8507   12.8328 C.3     1  UNL1        0.1292
     34 C          63.2639   82.8506   13.1819 C.ar    1  UNL1        0.0531
     35 C          62.9774   81.7065   12.2552 C.ar    1  UNL1        0.1422
     36 F          63.6523   81.4126   10.9483 F       1  UNL1       -0.2043
     37 C          61.9154   80.7064   12.6043 C.ar    1  UNL1        0.0591
     38 C          61.1398   80.8505   13.8801 C.ar    1  UNL1        0.1446
     39 F          60.0777   79.8504   14.2292 F       1  UNL1       -0.2040
     40 C          61.4262   81.9946   14.8068 C.ar    1  UNL1        0.0591
     41 C          62.4883   82.9947   14.4577 C.ar    1  UNL1        0.1422
     42 F          62.7748   84.1389   15.3845 F       1  UNL1       -0.2043
@<TRIPOS>UNITY_ATOM_ATTR
22 1
charge -1
@<TRIPOS>BOND
     1    25    26    1
     2    26    27   ar
     3    27    28   ar
     4    28    29    1
     5    28    30   ar
     6    30    31   ar
     7    31    24    1
     8    20    24    1
     9    20    21    1
    10    21    22   ar
    11    21    23   ar
    12    20     1    1
    13     1    14    1
    14    14    15   ar
    15    15    16   ar
    16    16    17   ar
    17    17    18   ar
    18    18    19   ar
    19     1     2    1
    20     2     3    1
    21     3     4    1
    22     4     5    2
    23     4     6   am
    24     6    33    1
    25    33    34    1
    26    34    35   ar
    27    35    36    1
    28    35    37   ar
    29    37    38   ar
    30    38    39    1
    31    38    40   ar
    32    40    41   ar
    33    41    42    1
    34     6     7    1
    35     7     8   ar
    36     8     9   ar
    37     9    10   ar
    38    10    11   ar
    39    11    12   ar
    40    31    32   ar
    41    32    26   ar
    42    12     1    1
    43    19    14   ar
    44    41    34   ar
    45    12     7   ar
    46     2    13    1
@<TRIPOS>MOLECULE
*****
 42 46 0 0 0
SMALL
GASTEIGER

@<TRIPOS>ATOM
      1 C          61.8067   88.4162   11.3926 C.3     1  UNL1        0.1243
      2 N          62.3420   88.9368   12.6936 N.3     1  UNL1       -0.2823
      3 C          63.2185   88.2383   13.6906 C.3     1  UNL1        0.1560
      4 C          63.7762   86.8470   13.6330 C.2     1  UNL1        0.2457
      5 O          64.5957   86.6055   14.8659 O.2     1  UNL1       -0.2730
      6 N          63.5950   85.8105   12.5639 N.am    1  UNL1       -0.2533
      7 C          62.8115   85.9092   11.2886 C.ar    1  UNL1        0.0518
      8 C          62.8913   84.6378   10.4967 C.ar    1  UNL1        0.0146
      9 C          62.1752   84.5262    9.1834 C.ar    1  UNL1        0.0013
     10 C          61.3793   85.6858    8.6621 C.ar    1  UNL1       -0.0002
     11 C          61.2995   86.9572    9.4541 C.ar    1  UNL1       -0.0014
     12 C          62.0157   87.0689   10.7673 C.ar    1  UNL1        0.0118
     13 H          61.5118   89.2010   13.2241 H       1  UNL1        0.1243
     14 C          61.0232   88.5150   10.1173 C.ar    1  UNL1       -0.0019
     15 C          59.7008   87.8179    9.9936 C.ar    1  UNL1       -0.0026
     16 C          58.9173   87.9167    8.7183 C.ar    1  UNL1       -0.0003
     17 C          59.4562   88.7124    7.5667 C.ar    1  UNL1       -0.0000
     18 C          60.7787   89.4096    7.6904 C.ar    1  UNL1       -0.0003
     19 C          61.5622   89.3108    8.9657 C.ar    1  UNL1       -0.0026
     20 C          61.2491   89.8076   11.4503 C.3     1  UNL1        0.2224
     21 C          59.9287   90.0593   12.1160 C.2     1  UNL1        0.0919
     22 O          59.5413   89.2747   13.3344 O.co2   1  UNL1       -0.5455
     23 O          58.9956   91.0955   11.5634 O.co2   1  UNL1       -0.5455
     24 O          62.0118   90.9471   10.8423 O.3     1  UNL1       -0.4716
     25 C          65.1803   91.4021   14.9354 C.3     1  UNL1        0.0311
     26 C          64.9146   91.5899   13.4711 C.ar    1  UNL1       -0.0192
     27 C          65.9674   92.1930   12.5891 C.ar    1  UNL1       -0.0083
     28 C          65.7016   92.3808   11.1248 C.ar    1  UNL1       -0.0192
     29 C          66.7545   92.9839   10.2428 C.3     1  UNL1        0.0311
     30 C          64.3832   91.9655   10.5426 C.ar    1  UNL1        0.0326
     31 C          63.3304   91.3624   11.4246 C.ar    1  UNL1        0.1384
     32 C          63.5961   91.1746   12.8889 C.ar    1  UNL1        0.0326
     33 C          64.2892   84.5022   12.8017 C.3     1  UNL1        0.1292
     34 C          63.4851   83.2634   13.0643 C.ar    1  UNL1        0.0531
     35 C          62.4842   83.2417   14.1812 C.ar    1  UNL1        0.1422
     36 F          62.1617   84.3609   15.1263 F       1  UNL1       -0.2043
     37 C          61.6802   82.0029   14.4438 C.ar    1  UNL1        0.0591
     38 C          61.8771   80.7859   13.5894 C.ar    1  UNL1        0.1446
     39 F          61.0730   79.5471   13.8520 F       1  UNL1       -0.2040
     40 C          62.8780   80.8076   12.4725 C.ar    1  UNL1        0.0591
     41 C          63.6821   82.0463   12.2099 C.ar    1  UNL1        0.1422
     42 F          64.6830   82.0681   11.0929 F       1  UNL1       -0.2043
@<TRIPOS>UNITY_ATOM_ATTR
22 1
charge -1
@<TRIPOS>BOND
     1    25    26    1
     2    26    27   ar
     3    27    28   ar
     4    28    29    1
     5    28    30   ar
     6    30    31   ar
     7    31    24    1
     8    20    24    1
     9    20    21    1
    10    21    22   ar
    11    21    23   ar
    12    20     1    1
    13     1    14    1
    14    14    15   ar
    15    15    16   ar
    16    16    17   ar
    17    17    18   ar
    18    18    19   ar
    19     1     2    1
    20     2     3    1
    21     3     4    1
    22     4     5    2
    23     4     6   am
    24     6    33    1
    25    33    34    1
    26    34    35   ar
    27    35    36    1
    28    35    37   ar
    29    37    38   ar
    30    38    39    1
    31    38    40   ar
    32    40    41   ar
    33    41    42    1
    34     6     7    1
    35     7     8   ar
    36     8     9   ar
    37     9    10   ar
    38    10    11   ar
    39    11    12   ar
    40    31    32   ar
    41    32    26   ar
    42    12     1    1
    43    19    14   ar
    44    41    34   ar
    45    12     7   ar
    46     2    13    1
@<TRIPOS>MOLECULE
*****
 42 46 0 0 0
SMALL
GASTEIGER

@<TRIPOS>ATOM
      1 C          61.7188   88.3806   11.2697 C.3     1  UNL1        0.1243
      2 N          62.2332   88.8790   12.5876 N.3     1  UNL1       -0.2823
      3 C          63.1124   88.1720   13.5762 C.3     1  UNL1        0.1560
      4 C          63.6943   86.7921   13.4910 C.2     1  UNL1        0.2457
      5 O          64.5066   86.5352   14.7256 O.2     1  UNL1       -0.2730
      6 N          63.5406   85.7784   12.3962 N.am    1  UNL1       -0.2533
      7 C          62.7672   85.8940   11.1161 C.ar    1  UNL1        0.0518
      8 C          62.8759   84.6434   10.2952 C.ar    1  UNL1        0.0146
      9 C          62.1737   84.5508    8.9730 C.ar    1  UNL1        0.0013
     10 C          61.3629   85.7090    8.4716 C.ar    1  UNL1       -0.0002
     11 C          61.2543   86.9596    9.2926 C.ar    1  UNL1       -0.0014
     12 C          61.9564   87.0522   10.6148 C.ar    1  UNL1        0.0118
     13 H          61.3939   89.1166   13.1163 H       1  UNL1        0.1243
     14 C          60.9453   88.4964    9.9897 C.ar    1  UNL1       -0.0019
     15 C          59.6463   87.7637    9.8294 C.ar    1  UNL1       -0.0026
     16 C          58.8729   87.8795    8.5495 C.ar    1  UNL1       -0.0003
     17 C          59.3984   88.7278    7.4297 C.ar    1  UNL1       -0.0000
     18 C          60.6976   89.4606    7.5899 C.ar    1  UNL1       -0.0003
     19 C          61.4710   89.3448    8.8699 C.ar    1  UNL1       -0.0026
     20 C          61.1369   89.7605   11.3549 C.3     1  UNL1        0.2224
     21 C          59.8068   89.9742   12.0145 C.2     1  UNL1        0.0919
     22 O          59.3562   89.0535   13.1097 O.co2   1  UNL1       -0.5455
     23 O          58.9272   91.1084   11.5789 O.co2   1  UNL1       -0.5455
     24 O          61.8852   90.9268   10.7805 O.3     1  UNL1       -0.4716
     25 C          66.6298   92.9671   10.2094 C.3     1  UNL1        0.0311
     26 C          65.5752   92.3559   11.0836 C.ar    1  UNL1       -0.0192
     27 C          65.8382   92.1538   12.5465 C.ar    1  UNL1       -0.0083
     28 C          64.7835   91.5426   13.4207 C.ar    1  UNL1       -0.0192
     29 C          65.0466   91.3405   14.8836 C.3     1  UNL1        0.0311
     30 C          63.4660   91.1336   12.8320 C.ar    1  UNL1        0.0326
     31 C          63.2029   91.3358   11.3691 C.ar    1  UNL1        0.1384
     32 C          64.2576   91.9470   10.4949 C.ar    1  UNL1        0.0326
     33 C          64.2549   84.4767   12.6096 C.3     1  UNL1        0.1292
     34 C          63.4723   83.2314   12.9047 C.ar    1  UNL1        0.0531
     35 C          63.5904   82.0398   12.0015 C.ar    1  UNL1        0.1422
     36 F          64.4374   81.9214   10.7691 F       1  UNL1       -0.2043
     37 C          62.8079   80.7945   12.2965 C.ar    1  UNL1        0.0591
     38 C          61.9074   80.7410   13.4950 C.ar    1  UNL1        0.1446
     39 F          61.1249   79.4957   13.7901 F       1  UNL1       -0.2040
     40 C          61.7894   81.9326   14.3982 C.ar    1  UNL1        0.0591
     41 C          62.5718   83.1778   14.1032 C.ar    1  UNL1        0.1422
     42 F          62.4538   84.3696   15.0065 F       1  UNL1       -0.2043
@<TRIPOS>UNITY_ATOM_ATTR
22 1
charge -1
@<TRIPOS>BOND
     1    25    26    1
     2    26    27   ar
     3    27    28   ar
     4    28    29    1
     5    28    30   ar
     6    30    31   ar
     7    31    24    1
     8    20    24    1
     9    20    21    1
    10    21    22   ar
    11    21    23   ar
    12    20     1    1
    13     1    14    1
    14    14    15   ar
    15    15    16   ar
    16    16    17   ar
    17    17    18   ar
    18    18    19   ar
    19     1     2    1
    20     2     3    1
    21     3     4    1
    22     4     5    2
    23     4     6   am
    24     6    33    1
    25    33    34    1
    26    34    35   ar
    27    35    36    1
    28    35    37   ar
    29    37    38   ar
    30    38    39    1
    31    38    40   ar
    32    40    41   ar
    33    41    42    1
    34     6     7    1
    35     7     8   ar
    36     8     9   ar
    37     9    10   ar
    38    10    11   ar
    39    11    12   ar
    40    31    32   ar
    41    32    26   ar
    42    12     1    1
    43    19    14   ar
    44    41    34   ar
    45    12     7   ar
    46     2    13    1
