@<TRIPOS>MOLECULE
*****
 16 18 0 0 0
SMALL
GASTEIGER

@<TRIPOS>ATOM
      1 O          63.9644   91.8842   12.7661 O.3     1  UNL1       -0.4724
      2 CL         61.9452   86.6911   10.5401 Cl      1  UNL1       -0.0613
      3 C          62.4500   87.9894   11.0966 C.ar    1  UNL1        0.1386
      4 C          62.3066   89.2528   10.3009 C.ar    1  UNL1        0.0339
      5 C          62.8114   90.5510   10.8574 C.ar    1  UNL1        0.0410
      6 C          63.4596   90.5859   12.2096 C.ar    1  UNL1        0.1578
      7 C          63.6030   89.3225   13.0053 C.ar    1  UNL1        0.1366
      8 N          63.0982   88.0242   12.4488 N.ar    1  UNL1       -0.2293
      9 C          65.3276   92.3828   12.3879 C.3     1  UNL1        0.2210
     10 C          66.3556   92.6348   13.4507 C.3     1  UNL1        0.0983
     11 C          67.6390   91.8800   13.6326 C.3     1  UNL1        0.0209
     12 C          68.3573   92.4645   14.8126 C.3     1  UNL1        0.0172
     13 C          68.8278   93.2407   16.0068 C.3     1  UNL1        0.0171
     14 C          67.5178   93.5805   15.3601 C.3     1  UNL1        0.0541
     15 N          66.2806   93.6858   14.5184 N.3     1  UNL1       -0.2966
     16 H          66.2305   94.6105   14.0909 H       1  UNL1        0.1233
@<TRIPOS>BOND
     1     2     3    1
     2     3     4   ar
     3     4     5   ar
     4     5     6   ar
     5     6     1    1
     6     1     9    1
     7    10     9    1
     8    10    11    1
     9    12    11    1
    10    12    13    1
    11    14    13    1
    12    14    15    1
    13     6     7   ar
    14     7     8   ar
    15     8     3   ar
    16    15    10    1
    17    14    12    1
    18    15    16    1
@<TRIPOS>MOLECULE
*****
 16 18 0 0 0
SMALL
GASTEIGER

@<TRIPOS>ATOM
      1 O          63.7045   91.1577   14.2451 O.3     1  UNL1       -0.4724
      2 CL         63.6708   85.6635   16.6561 Cl      1  UNL1       -0.0613
      3 C          63.6792   87.0371   16.0534 C.ar    1  UNL1        0.1386
      4 C          64.3099   87.2633   14.7114 C.ar    1  UNL1        0.0339
      5 C          64.3183   88.6369   14.1086 C.ar    1  UNL1        0.0410
      6 C          63.6961   89.7841   14.8478 C.ar    1  UNL1        0.1578
      7 C          63.0654   89.5579   16.1898 C.ar    1  UNL1        0.1366
      8 N          63.0570   88.1843   16.7926 N.ar    1  UNL1       -0.2293
      9 C          64.8918   91.6228   13.4552 C.3     1  UNL1        0.2210
     10 C          66.1002   92.1595   14.1634 C.3     1  UNL1        0.0983
     11 C          67.5271   91.8093   13.8614 C.3     1  UNL1        0.0209
     12 C          68.4028   92.5740   14.8094 C.3     1  UNL1        0.0172
     13 C          69.0064   93.4502   15.8666 C.3     1  UNL1        0.0171
     14 C          67.5170   93.3968   15.6972 C.3     1  UNL1        0.0541
     15 N          66.0939   93.1407   15.2981 N.3     1  UNL1       -0.2966
     16 H          65.6559   94.0122   14.9997 H       1  UNL1        0.1233
@<TRIPOS>BOND
     1     2     3    1
     2     3     4   ar
     3     4     5   ar
     4     5     6   ar
     5     6     1    1
     6     1     9    1
     7    10     9    1
     8    10    11    1
     9    12    11    1
    10    12    13    1
    11    14    13    1
    12    14    15    1
    13     6     7   ar
    14     7     8   ar
    15     8     3   ar
    16    15    10    1
    17    14    12    1
    18    15    16    1
@<TRIPOS>MOLECULE
*****
 16 18 0 0 0
SMALL
GASTEIGER

@<TRIPOS>ATOM
      1 O          63.8653   84.2473   15.8250 O.3     1  UNL1       -0.4724
      2 CL         63.5093   90.2348   15.9772 Cl      1  UNL1       -0.0613
      3 C          63.5983   88.7379   15.9392 C.ar    1  UNL1        0.1386
      4 C          64.3529   88.0593   14.8347 C.ar    1  UNL1        0.0339
      5 C          64.4419   86.5625   14.7966 C.ar    1  UNL1        0.0410
      6 C          63.7763   85.7442   15.8630 C.ar    1  UNL1        0.1578
      7 C          63.0216   86.4228   16.9675 C.ar    1  UNL1        0.1366
      8 N          62.9326   87.9197   17.0056 N.ar    1  UNL1       -0.2293
      9 C          62.9650   83.4654   14.9150 C.3     1  UNL1        0.2210
     10 C          63.2981   83.3387   13.4580 C.3     1  UNL1        0.0983
     11 C          62.7895   84.2219   12.3573 C.3     1  UNL1        0.0209
     12 C          63.3753   83.7357   11.0648 C.3     1  UNL1        0.0172
     13 C          64.0990   83.0343    9.9539 C.3     1  UNL1        0.0171
     14 C          64.2459   82.5521   11.3667 C.3     1  UNL1        0.0541
     15 N          64.1982   82.3067   12.8457 N.3     1  UNL1       -0.2966
     16 H          65.1354   82.3869   13.2403 H       1  UNL1        0.1233
@<TRIPOS>BOND
     1     2     3    1
     2     3     4   ar
     3     4     5   ar
     4     5     6   ar
     5     6     1    1
     6     1     9    1
     7    10     9    1
     8    10    11    1
     9    12    11    1
    10    12    13    1
    11    14    13    1
    12    14    15    1
    13     6     7   ar
    14     7     8   ar
    15     8     3   ar
    16    15    10    1
    17    14    12    1
    18    15    16    1
@<TRIPOS>MOLECULE
*****
 16 18 0 0 0
SMALL
GASTEIGER

@<TRIPOS>ATOM
      1 O          64.1302   82.9267   13.7597 O.3     1  UNL1       -0.4724
      2 CL         62.8562   87.5190   17.4050 Cl      1  UNL1       -0.0613
      3 C          63.1747   86.3709   16.4936 C.ar    1  UNL1        0.1386
      4 C          64.3729   86.4377   15.5938 C.ar    1  UNL1        0.0339
      5 C          64.6914   85.2896   14.6825 C.ar    1  UNL1        0.0410
      6 C          63.8117   84.0748   14.6710 C.ar    1  UNL1        0.1578
      7 C          62.6135   84.0080   15.5709 C.ar    1  UNL1        0.1366
      8 N          62.2950   85.1561   16.4822 N.ar    1  UNL1       -0.2293
      9 C          63.2075   82.5909   12.6258 C.3     1  UNL1        0.2210
     10 C          63.1066   83.5089   11.4438 C.3     1  UNL1        0.0983
     11 C          63.7961   83.3264   10.1243 C.3     1  UNL1        0.0209
     12 C          63.4142   84.4753    9.2388 C.3     1  UNL1        0.0172
     13 C          62.8641   85.7167    8.6014 C.3     1  UNL1        0.0171
     14 C          62.4887   85.3680   10.0112 C.3     1  UNL1        0.0541
     15 N          62.2986   84.7708   11.3740 N.3     1  UNL1       -0.2966
     16 H          61.3122   84.5590   11.5246 H       1  UNL1        0.1233
@<TRIPOS>BOND
     1     2     3    1
     2     3     4   ar
     3     4     5   ar
     4     5     6   ar
     5     6     1    1
     6     1     9    1
     7    10     9    1
     8    10    11    1
     9    12    11    1
    10    12    13    1
    11    14    13    1
    12    14    15    1
    13     6     7   ar
    14     7     8   ar
    15     8     3   ar
    16    15    10    1
    17    14    12    1
    18    15    16    1
@<TRIPOS>MOLECULE
*****
 16 18 0 0 0
SMALL
GASTEIGER

@<TRIPOS>ATOM
      1 O          64.4743   92.0423   13.1553 O.3     1  UNL1       -0.4724
      2 CL         61.7971   87.6389   10.0825 Cl      1  UNL1       -0.0613
      3 C          62.4664   88.7397   10.8507 C.ar    1  UNL1        0.1386
      4 C          62.6575   90.0866   10.2187 C.ar    1  UNL1        0.0339
      5 C          63.3268   91.1874   10.9869 C.ar    1  UNL1        0.0410
      6 C          63.8050   90.9415   12.3871 C.ar    1  UNL1        0.1578
      7 C          63.6139   89.5947   13.0192 C.ar    1  UNL1        0.1366
      8 N          62.9447   88.4938   12.2510 N.ar    1  UNL1       -0.2293
      9 C          65.9396   92.3033   12.9692 C.3     1  UNL1        0.2210
     10 C          66.4170   93.0886   11.7838 C.3     1  UNL1        0.0983
     11 C          66.9281   92.5164   10.4948 C.3     1  UNL1        0.0209
     12 C          67.2940   93.6582    9.5935 C.3     1  UNL1        0.0172
     13 C          67.5649   94.9773    8.9328 C.3     1  UNL1        0.0171
     14 C          67.0091   94.9361   10.3254 C.3     1  UNL1        0.0541
     15 N          66.4670   94.5842   11.6791 N.3     1  UNL1       -0.2966
     16 H          65.5292   94.9704   11.7875 H       1  UNL1        0.1233
@<TRIPOS>BOND
     1     2     3    1
     2     3     4   ar
     3     4     5   ar
     4     5     6   ar
     5     6     1    1
     6     1     9    1
     7    10     9    1
     8    10    11    1
     9    12    11    1
    10    12    13    1
    11    14    13    1
    12    14    15    1
    13     6     7   ar
    14     7     8   ar
    15     8     3   ar
    16    15    10    1
    17    14    12    1
    18    15    16    1
@<TRIPOS>MOLECULE
*****
 16 18 0 0 0
SMALL
GASTEIGER

@<TRIPOS>ATOM
      1 O          60.5749   87.4724   10.8944 O.3     1  UNL1       -0.4724
      2 CL         61.9603   84.4251    5.9150 Cl      1  UNL1       -0.0613
      3 C          61.6140   85.1870    7.1599 C.ar    1  UNL1        0.1386
      4 C          62.6505   85.3969    8.2235 C.ar    1  UNL1        0.0339
      5 C          62.3042   86.1587    9.4684 C.ar    1  UNL1        0.0410
      6 C          60.9213   86.7106    9.6496 C.ar    1  UNL1        0.1578
      7 C          59.8847   86.5007    8.5859 C.ar    1  UNL1        0.1366
      8 N          60.2311   85.7389    7.3411 N.ar    1  UNL1       -0.2293
      9 C          60.5230   88.9712   10.8665 C.3     1  UNL1        0.2210
     10 C          61.7133   89.7713   11.3058 C.3     1  UNL1        0.0983
     11 C          62.6910   90.4649   10.4042 C.3     1  UNL1        0.0209
     12 C          63.7169   91.1405   11.2651 C.3     1  UNL1        0.0172
     13 C          64.5758   91.6953   12.3625 C.3     1  UNL1        0.0171
     14 C          63.3731   90.8645   12.6989 C.3     1  UNL1        0.0541
     15 N          62.1348   90.0183   12.7241 N.3     1  UNL1       -0.2966
     16 H          61.3926   90.5058   13.2260 H       1  UNL1        0.1233
@<TRIPOS>BOND
     1     2     3    1
     2     3     4   ar
     3     4     5   ar
     4     5     6   ar
     5     6     1    1
     6     1     9    1
     7    10     9    1
     8    10    11    1
     9    12    11    1
    10    12    13    1
    11    14    13    1
    12    14    15    1
    13     6     7   ar
    14     7     8   ar
    15     8     3   ar
    16    15    10    1
    17    14    12    1
    18    15    16    1
@<TRIPOS>MOLECULE
*****
 16 18 0 0 0
SMALL
GASTEIGER

@<TRIPOS>ATOM
      1 O          61.6242   86.0133   11.9654 O.3     1  UNL1       -0.4724
      2 CL         59.3804   88.8808    7.1965 Cl      1  UNL1       -0.0613
      3 C          59.9413   88.1640    8.3887 C.ar    1  UNL1        0.1386
      4 C          60.4399   86.7560    8.2511 C.ar    1  UNL1        0.0339
      5 C          61.0008   86.0391    9.4434 C.ar    1  UNL1        0.0410
      6 C          61.0632   86.7302   10.7732 C.ar    1  UNL1        0.1578
      7 C          60.5647   88.1382   10.9108 C.ar    1  UNL1        0.1366
      8 N          60.0037   88.8551    9.7185 N.ar    1  UNL1       -0.2293
      9 C          62.7799   85.0717   11.7991 C.3     1  UNL1        0.2210
     10 C          62.7042   83.6842   12.3640 C.3     1  UNL1        0.0983
     11 C          62.8365   82.4077   11.5875 C.3     1  UNL1        0.0209
     12 C          62.6970   81.2642   12.5481 C.3     1  UNL1        0.0172
     13 C          62.5222   80.3475   13.7224 C.3     1  UNL1        0.0171
     14 C          62.4785   81.8339   13.9184 C.3     1  UNL1        0.0541
     15 N          62.4829   83.3296   13.8046 N.3     1  UNL1       -0.2966
     16 H          63.2334   83.7180   14.3759 H       1  UNL1        0.1233
@<TRIPOS>BOND
     1     2     3    1
     2     3     4   ar
     3     4     5   ar
     4     5     6   ar
     5     6     1    1
     6     1     9    1
     7    10     9    1
     8    10    11    1
     9    12    11    1
    10    12    13    1
    11    14    13    1
    12    14    15    1
    13     6     7   ar
    14     7     8   ar
    15     8     3   ar
    16    15    10    1
    17    14    12    1
    18    15    16    1
@<TRIPOS>MOLECULE
*****
 16 18 0 0 0
SMALL
GASTEIGER

@<TRIPOS>ATOM
      1 O          63.7871   83.9109   12.7798 O.3     1  UNL1       -0.4724
      2 CL         62.7041   86.6512   18.0064 Cl      1  UNL1       -0.0613
      3 C          62.9749   85.9661   16.6998 C.ar    1  UNL1        0.1386
      4 C          64.1160   86.4188   15.8379 C.ar    1  UNL1        0.0339
      5 C          64.3867   85.7337   14.5312 C.ar    1  UNL1        0.0410
      6 C          63.5164   84.5959   14.0864 C.ar    1  UNL1        0.1578
      7 C          62.3752   84.1433   14.9483 C.ar    1  UNL1        0.1366
      8 N          62.1045   84.8283   16.2550 N.ar    1  UNL1       -0.2293
      9 C          62.7276   83.8738   11.7187 C.3     1  UNL1        0.2210
     10 C          62.2819   85.1452   11.0591 C.3     1  UNL1        0.0983
     11 C          62.5664   85.5507    9.6433 C.3     1  UNL1        0.0209
     12 C          61.9337   86.8903    9.4087 C.3     1  UNL1        0.0172
     13 C          61.2100   88.2026    9.4729 C.3     1  UNL1        0.0171
     14 C          61.2582   87.3128   10.6796 C.3     1  UNL1        0.0541
     15 N          61.4733   86.2343   11.6997 N.3     1  UNL1       -0.2966
     16 H          60.5739   85.8632   12.0060 H       1  UNL1        0.1233
@<TRIPOS>BOND
     1     2     3    1
     2     3     4   ar
     3     4     5   ar
     4     5     6   ar
     5     6     1    1
     6     1     9    1
     7    10     9    1
     8    10    11    1
     9    12    11    1
    10    12    13    1
    11    14    13    1
    12    14    15    1
    13     6     7   ar
    14     7     8   ar
    15     8     3   ar
    16    15    10    1
    17    14    12    1
    18    15    16    1
@<TRIPOS>MOLECULE
*****
 16 18 0 0 0
SMALL
GASTEIGER

@<TRIPOS>ATOM
      1 O          60.4344   87.6161    9.9259 O.3     1  UNL1       -0.4724
      2 CL         64.3634   83.0884   10.1752 Cl      1  UNL1       -0.0613
      3 C          63.3812   84.2203   10.1128 C.ar    1  UNL1        0.1386
      4 C          63.1609   84.9520    8.8221 C.ar    1  UNL1        0.0339
      5 C          62.1787   86.0839    8.7598 C.ar    1  UNL1        0.0410
      6 C          61.4167   86.4842    9.9882 C.ar    1  UNL1        0.1578
      7 C          61.6369   85.7525   11.2789 C.ar    1  UNL1        0.1366
      8 N          62.6192   84.6206   11.3413 N.ar    1  UNL1       -0.2293
      9 C          60.3551   88.6032   11.0525 C.3     1  UNL1        0.2210
     10 C          61.5332   89.4760   11.3692 C.3     1  UNL1        0.0983
     11 C          62.4187   90.1589   10.3695 C.3     1  UNL1        0.0209
     12 C          63.4654   90.9241   11.1237 C.3     1  UNL1        0.0172
     13 C          64.3663   91.5750   12.1310 C.3     1  UNL1        0.0171
     14 C          63.2268   90.7142   12.5897 C.3     1  UNL1        0.0541
     15 N          62.0326   89.8192   12.7415 N.3     1  UNL1       -0.2966
     16 H          61.3024   90.3022   13.2649 H       1  UNL1        0.1233
@<TRIPOS>BOND
     1     2     3    1
     2     3     4   ar
     3     4     5   ar
     4     5     6   ar
     5     6     1    1
     6     1     9    1
     7    10     9    1
     8    10    11    1
     9    12    11    1
    10    12    13    1
    11    14    13    1
    12    14    15    1
    13     6     7   ar
    14     7     8   ar
    15     8     3   ar
    16    15    10    1
    17    14    12    1
    18    15    16    1
