@<TRIPOS>MOLECULE
*****
 26 30 0 0 0
SMALL
GASTEIGER

@<TRIPOS>ATOM
      1 C          61.5435   89.9405   11.8396 C.3     1  UNL1        0.1285
      2 N          61.1051   89.4320   13.1809 N.3     1  UNL1       -0.3150
      3 H          61.7932   89.6958   13.8861 H       1  UNL1        0.1192
      4 H          61.0234   88.4157   13.1491 H       1  UNL1        0.1192
      5 C          62.8265   90.7070   11.7108 C.3     1  UNL1        0.0237
      6 C          63.7096   90.8977   12.9081 C.3     1  UNL1        0.0019
      7 C          64.9925   91.6641   12.7793 C.3     1  UNL1        0.0024
      8 C          65.3923   92.2398   11.4531 C.3     1  UNL1        0.0002
      9 C          64.5092   92.0491   10.2558 C.3     1  UNL1        0.0024
     10 C          63.0307   90.5443   12.7774 C.3     1  UNL1        0.0269
     11 C          63.3098   90.3220   14.2343 C.3     1  UNL1        0.0884
     12 O          62.9100   89.7464   15.5605 O.3     1  UNL1       -0.3867
     13 C          64.5927   91.0885   14.1055 C.3     1  UNL1        0.0269
     14 C          62.4267   90.1313   13.0370 C.3     1  UNL1        0.0287
     15 C          63.2263   91.2827   10.3846 C.3     1  UNL1        0.0019
     16 H          63.5863   89.9592   16.2225 H       1  UNL1        0.2102
     17 C          61.5175   87.1463   10.4233 C.3     1  UNL1        0.1672
     18 C          61.2273   86.0099    9.4881 C.3     1  UNL1        0.0372
     19 C          60.2437   86.4925    8.4635 C.3     1  UNL1        0.0226
     20 C          59.2787   87.2455    7.5965 C.3     1  UNL1        0.0216
     21 C          59.9261   87.9270    8.7655 C.3     1  UNL1        0.0764
     22 N          60.7133   88.3311    9.9766 N.am    1  UNL1       -0.2691
     23 C          60.6989   89.6827   10.6271 C.2     1  UNL1        0.2403
     24 O          59.8400   90.7764   10.0650 O.2     1  UNL1       -0.2734
     25 N          63.3794   87.0637   12.7742 N.1     1  UNL1       -0.1942
     26 C          62.4484   87.1050   11.5988 C.1     1  UNL1        0.0925
@<TRIPOS>BOND
     1    25    26    3
     2    17    26    1
     3    17    18    1
     4    19    18    1
     5    19    20    1
     6    21    20    1
     7    21    22    1
     8    22    23   am
     9    23    24    2
    10    23     1    1
    11     1     2    1
    12     1     5    1
    13     5     6    1
    14     6     7    1
    15     7     8    1
    16     8     9    1
    17     9    10    1
    18    10    11    1
    19    11    12    1
    20    11    13    1
    21    11    14    1
    22     9    15    1
    23    22    17    1
    24    14     5    1
    25    21    19    1
    26    15     5    1
    27    13     7    1
    28     2     3    1
    29     2     4    1
    30    12    16    1
@<TRIPOS>MOLECULE
*****
 26 30 0 0 0
SMALL
GASTEIGER

@<TRIPOS>ATOM
      1 C          61.8953   87.2664   11.4260 C.3     1  UNL1        0.1285
      2 N          60.4177   87.4640   11.5922 N.3     1  UNL1       -0.3150
      3 H          59.9179   86.7317   11.0879 H       1  UNL1        0.1192
      4 H          60.1525   88.3755   11.2192 H       1  UNL1        0.1192
      5 C          62.4114   86.1179   10.6107 C.3     1  UNL1        0.0237
      6 C          62.7514   84.8179   11.2773 C.3     1  UNL1        0.0019
      7 C          63.2674   83.6695   10.4619 C.3     1  UNL1        0.0024
      8 C          63.4436   83.8211    8.9800 C.3     1  UNL1        0.0002
      9 C          63.1036   85.1212    8.3135 C.3     1  UNL1        0.0024
     10 C          62.4807   85.5044   11.5188 C.3     1  UNL1        0.0269
     11 C          62.5753   84.6663   12.7591 C.3     1  UNL1        0.0884
     12 O          62.3991   84.5147   14.2410 O.3     1  UNL1       -0.3867
     13 C          63.0913   83.5179   11.9438 C.3     1  UNL1        0.0269
     14 C          62.2353   85.9663   12.0926 C.3     1  UNL1        0.0287
     15 C          62.5875   86.2696    9.1288 C.3     1  UNL1        0.0019
     16 H          62.6625   83.6201   14.5081 H       1  UNL1        0.2102
     17 C          62.3828   90.1416   10.2815 C.3     1  UNL1        0.1672
     18 C          62.8854   91.5386   10.0666 C.3     1  UNL1        0.0372
     19 C          63.8765   91.8463   11.1498 C.3     1  UNL1        0.0226
     20 C          64.8030   91.8627   12.3293 C.3     1  UNL1        0.0216
     21 C          63.9864   90.6396   12.0339 C.3     1  UNL1        0.0764
     22 N          63.0633   89.5861   11.4973 N.am    1  UNL1       -0.2691
     23 C          62.8568   88.2173   12.0751 C.2     1  UNL1        0.2403
     24 O          63.6119   87.7994   13.3020 O.2     1  UNL1       -0.2734
     25 N          60.3700   88.7104    8.5784 N.1     1  UNL1       -0.1942
     26 C          61.3764   89.4260    9.4299 C.1     1  UNL1        0.0925
@<TRIPOS>BOND
     1    25    26    3
     2    17    26    1
     3    17    18    1
     4    19    18    1
     5    19    20    1
     6    21    20    1
     7    21    22    1
     8    22    23   am
     9    23    24    2
    10    23     1    1
    11     1     2    1
    12     1     5    1
    13     5     6    1
    14     6     7    1
    15     7     8    1
    16     8     9    1
    17     9    10    1
    18    10    11    1
    19    11    12    1
    20    11    13    1
    21    11    14    1
    22     9    15    1
    23    22    17    1
    24    14     5    1
    25    21    19    1
    26    15     5    1
    27    13     7    1
    28     2     3    1
    29     2     4    1
    30    12    16    1
@<TRIPOS>MOLECULE
*****
 26 30 0 0 0
SMALL
GASTEIGER

@<TRIPOS>ATOM
      1 C          62.1615   89.5627   11.8249 C.3     1  UNL1        0.1285
      2 N          61.1982   89.9949   12.8905 N.3     1  UNL1       -0.3150
      3 H          60.6944   89.1813   13.2436 H       1  UNL1        0.1192
      4 H          60.5340   90.6621   12.4980 H       1  UNL1        0.1192
      5 C          62.2574   88.1153   11.4429 C.3     1  UNL1        0.0237
      6 C          61.6133   87.6290   10.1786 C.3     1  UNL1        0.0019
      7 C          61.7092   86.1817    9.7966 C.3     1  UNL1        0.0024
      8 C          62.4493   85.2206   10.6790 C.3     1  UNL1        0.0002
      9 C          63.0934   85.7068   11.9433 C.3     1  UNL1        0.0024
     10 C          61.6724   88.3160   10.5356 C.3     1  UNL1        0.0269
     11 C          60.8732   88.5901    9.2962 C.3     1  UNL1        0.0884
     12 O          60.1332   89.5512    8.4138 O.3     1  UNL1       -0.3867
     13 C          60.9692   87.1427    8.9142 C.3     1  UNL1        0.0269
     14 C          61.5173   89.0763   10.5605 C.3     1  UNL1        0.0287
     15 C          62.9974   87.1542   12.3253 C.3     1  UNL1        0.0019
     16 H          59.7807   89.0777    7.6440 H       1  UNL1        0.2102
     17 C          64.5084   90.9929   13.3285 C.3     1  UNL1        0.1672
     18 C          65.6789   91.8679   13.6669 C.3     1  UNL1        0.0372
     19 C          66.0370   92.6570   12.4425 C.3     1  UNL1        0.0226
     20 C          66.1556   93.2909   11.0882 C.3     1  UNL1        0.0216
     21 C          65.0879   92.2698   11.3475 C.3     1  UNL1        0.0764
     22 N          64.1432   91.2414   11.8950 N.am    1  UNL1       -0.2691
     23 C          63.0288   90.5778   11.1414 C.2     1  UNL1        0.2403
     24 O          62.7817   90.9295    9.7043 O.2     1  UNL1       -0.2734
     25 N          63.1385   89.0818   15.1916 N.1     1  UNL1       -0.1942
     26 C          63.8234   90.0374   14.2601 C.1     1  UNL1        0.0925
@<TRIPOS>BOND
     1    25    26    3
     2    17    26    1
     3    17    18    1
     4    19    18    1
     5    19    20    1
     6    21    20    1
     7    21    22    1
     8    22    23   am
     9    23    24    2
    10    23     1    1
    11     1     2    1
    12     1     5    1
    13     5     6    1
    14     6     7    1
    15     7     8    1
    16     8     9    1
    17     9    10    1
    18    10    11    1
    19    11    12    1
    20    11    13    1
    21    11    14    1
    22     9    15    1
    23    22    17    1
    24    14     5    1
    25    21    19    1
    26    15     5    1
    27    13     7    1
    28     2     3    1
    29     2     4    1
    30    12    16    1
@<TRIPOS>MOLECULE
*****
 26 30 0 0 0
SMALL
GASTEIGER

@<TRIPOS>ATOM
      1 C          62.4712   89.5600   12.3959 C.3     1  UNL1        0.1285
      2 N          61.0608   89.9370   12.7402 N.3     1  UNL1       -0.3150
      3 H          60.9741   90.9533   12.7535 H       1  UNL1        0.1192
      4 H          60.8237   89.5636   13.6593 H       1  UNL1        0.1192
      5 C          63.4912   90.6288   12.1362 C.3     1  UNL1        0.0237
      6 C          64.3107   91.1742   13.2679 C.3     1  UNL1        0.0019
      7 C          65.3307   92.2429   13.0082 C.3     1  UNL1        0.0024
      8 C          65.5311   92.7662   11.6168 C.3     1  UNL1        0.0002
      9 C          64.7115   92.2208   10.4851 C.3     1  UNL1        0.0024
     10 C          63.7529   90.6381   13.2026 C.3     1  UNL1        0.0269
     11 C          64.1104   90.6509   14.6593 C.3     1  UNL1        0.0884
     12 O          63.9100   90.1276   16.0507 O.3     1  UNL1       -0.3867
     13 C          65.1303   91.7196   14.3996 C.3     1  UNL1        0.0269
     14 C          63.2908   90.1055   13.5276 C.3     1  UNL1        0.0287
     15 C          63.6916   91.1521   10.7448 C.3     1  UNL1        0.0019
     16 H          64.5143   90.5830   16.6576 H       1  UNL1        0.2102
     17 C          61.3856   87.6987   10.1218 C.3     1  UNL1        0.1672
     18 C          61.1070   86.5187    9.2385 C.3     1  UNL1        0.0372
     19 C          61.8701   85.3454    9.7782 C.3     1  UNL1        0.0226
     20 C          62.7290   84.3765   10.5356 C.3     1  UNL1        0.0216
     21 C          62.6203   85.8003   10.9949 C.3     1  UNL1        0.0764
     22 N          62.3208   87.2546   11.2072 N.am    1  UNL1       -0.2691
     23 C          62.8616   88.1142   12.3112 C.2     1  UNL1        0.2403
     24 O          63.7929   87.5279   13.3305 O.2     1  UNL1       -0.2734
     25 N          60.2684   90.4615    9.7776 N.1     1  UNL1       -0.1942
     26 C          60.8270   89.0801    9.9497 C.1     1  UNL1        0.0925
@<TRIPOS>BOND
     1    25    26    3
     2    17    26    1
     3    17    18    1
     4    19    18    1
     5    19    20    1
     6    21    20    1
     7    21    22    1
     8    22    23   am
     9    23    24    2
    10    23     1    1
    11     1     2    1
    12     1     5    1
    13     5     6    1
    14     6     7    1
    15     7     8    1
    16     8     9    1
    17     9    10    1
    18    10    11    1
    19    11    12    1
    20    11    13    1
    21    11    14    1
    22     9    15    1
    23    22    17    1
    24    14     5    1
    25    21    19    1
    26    15     5    1
    27    13     7    1
    28     2     3    1
    29     2     4    1
    30    12    16    1
@<TRIPOS>MOLECULE
*****
 26 30 0 0 0
SMALL
GASTEIGER

@<TRIPOS>ATOM
      1 C          65.6979   93.2582   11.6946 C.3     1  UNL1        0.1285
      2 N          65.7296   94.2427   12.8258 N.3     1  UNL1       -0.3150
      3 H          66.4598   94.9340   12.6546 H       1  UNL1        0.1192
      4 H          65.9240   93.7517   13.6985 H       1  UNL1        0.1192
      5 C          66.6588   93.3983   10.5513 C.3     1  UNL1        0.0237
      6 C          66.6535   94.6438    9.7154 C.3     1  UNL1        0.0019
      7 C          67.6144   94.7838    8.5722 C.3     1  UNL1        0.0024
      8 C          68.5806   93.6784    8.2648 C.3     1  UNL1        0.0002
      9 C          68.5860   92.4329    9.1007 C.3     1  UNL1        0.0024
     10 C          66.2482   94.3919   10.3279 C.3     1  UNL1        0.0269
     11 C          65.6873   95.7492   10.0227 C.3     1  UNL1        0.0884
     12 O          64.7211   96.8546   10.3300 O.3     1  UNL1       -0.3867
     13 C          66.6482   95.8892    8.8795 C.3     1  UNL1        0.0269
     14 C          65.6926   94.5038   10.8586 C.3     1  UNL1        0.0287
     15 C          67.6251   92.2929   10.2439 C.3     1  UNL1        0.0019
     16 H          64.8492   97.5806    9.6996 H       1  UNL1        0.2102
     17 C          65.6771   91.1137   13.9782 C.3     1  UNL1        0.1672
     18 C          65.3396   89.9338   14.8409 C.3     1  UNL1        0.0372
     19 C          64.1809   89.2170   14.2133 C.3     1  UNL1        0.0226
     20 C          63.0431   88.7255   13.3685 C.3     1  UNL1        0.0216
     21 C          63.8023   89.9539   12.9628 C.3     1  UNL1        0.0764
     22 N          64.7270   91.1260   12.8175 N.am    1  UNL1       -0.2691
     23 C          64.7053   92.1337   11.7065 C.2     1  UNL1        0.2403
     24 O          63.6911   92.0168   10.6076 O.2     1  UNL1       -0.2734
     25 N          67.8675   93.0998   14.4853 N.1     1  UNL1       -0.1942
     26 C          66.7723   92.1068   14.2317 C.1     1  UNL1        0.0925
@<TRIPOS>BOND
     1    25    26    3
     2    17    26    1
     3    17    18    1
     4    19    18    1
     5    19    20    1
     6    21    20    1
     7    21    22    1
     8    22    23   am
     9    23    24    2
    10    23     1    1
    11     1     2    1
    12     1     5    1
    13     5     6    1
    14     6     7    1
    15     7     8    1
    16     8     9    1
    17     9    10    1
    18    10    11    1
    19    11    12    1
    20    11    13    1
    21    11    14    1
    22     9    15    1
    23    22    17    1
    24    14     5    1
    25    21    19    1
    26    15     5    1
    27    13     7    1
    28     2     3    1
    29     2     4    1
    30    12    16    1
@<TRIPOS>MOLECULE
*****
 26 30 0 0 0
SMALL
GASTEIGER

@<TRIPOS>ATOM
      1 C          61.2605   86.9159   10.6516 C.3     1  UNL1        0.1285
      2 N          59.8607   87.4518   10.7095 N.3     1  UNL1       -0.3150
      3 H          59.3588   87.1839    9.8629 H       1  UNL1        0.1192
      4 H          59.8887   88.4689   10.7806 H       1  UNL1        0.1192
      5 C          61.7109   86.1218    9.4613 C.3     1  UNL1        0.0237
      6 C          60.8421   86.0410    8.2412 C.3     1  UNL1        0.0019
      7 C          61.2925   85.2470    7.0510 C.3     1  UNL1        0.0024
      8 C          62.6118   84.5339    7.0808 C.3     1  UNL1        0.0002
      9 C          63.4807   84.6147    8.3009 C.3     1  UNL1        0.0024
     10 C          60.7861   86.3891    8.9330 C.3     1  UNL1        0.0269
     11 C          59.5228   86.7541    8.2114 C.3     1  UNL1        0.0884
     12 O          58.2035   87.4673    8.1816 O.3     1  UNL1       -0.3867
     13 C          59.9732   85.9602    7.0212 C.3     1  UNL1        0.0269
     14 C          60.3916   86.8350    9.4314 C.3     1  UNL1        0.0287
     15 C          63.0302   85.4087    9.4911 C.3     1  UNL1        0.0019
     16 H          57.7718   87.3130    7.3267 H       1  UNL1        0.2102
     17 C          62.3825   89.7831   11.2297 C.3     1  UNL1        0.1672
     18 C          63.1197   90.9470   11.8232 C.3     1  UNL1        0.0372
     19 C          63.9183   90.4441   12.9892 C.3     1  UNL1        0.0226
     20 C          64.5921   89.6637   14.0787 C.3     1  UNL1        0.0216
     21 C          63.6746   88.9695   13.1164 C.3     1  UNL1        0.0764
     22 N          62.7255   88.5610   12.0290 N.am    1  UNL1       -0.2691
     23 C          62.2098   87.1739   11.7839 C.2     1  UNL1        0.2403
     24 O          62.6435   86.0448   12.6711 O.2     1  UNL1       -0.2734
     25 N          60.5450   89.8824    8.8604 N.1     1  UNL1       -0.1942
     26 C          61.4638   89.8328   10.0451 C.1     1  UNL1        0.0925
@<TRIPOS>BOND
     1    25    26    3
     2    17    26    1
     3    17    18    1
     4    19    18    1
     5    19    20    1
     6    21    20    1
     7    21    22    1
     8    22    23   am
     9    23    24    2
    10    23     1    1
    11     1     2    1
    12     1     5    1
    13     5     6    1
    14     6     7    1
    15     7     8    1
    16     8     9    1
    17     9    10    1
    18    10    11    1
    19    11    12    1
    20    11    13    1
    21    11    14    1
    22     9    15    1
    23    22    17    1
    24    14     5    1
    25    21    19    1
    26    15     5    1
    27    13     7    1
    28     2     3    1
    29     2     4    1
    30    12    16    1
@<TRIPOS>MOLECULE
*****
 26 30 0 0 0
SMALL
GASTEIGER

@<TRIPOS>ATOM
      1 C          62.0098   86.2489   11.4379 C.3     1  UNL1        0.1285
      2 N          61.1176   85.9675   10.2653 N.3     1  UNL1       -0.3150
      3 H          60.9567   86.8304    9.7457 H       1  UNL1        0.1192
      4 H          60.2262   85.5991   10.5970 H       1  UNL1        0.1192
      5 C          62.5116   87.6414   11.6813 C.3     1  UNL1        0.0237
      6 C          62.0963   88.7583   10.7703 C.3     1  UNL1        0.0019
      7 C          62.5982   90.1507   11.0138 C.3     1  UNL1        0.0024
      8 C          63.5154   90.4261   12.1683 C.3     1  UNL1        0.0002
      9 C          63.9307   89.3092   13.0793 C.3     1  UNL1        0.0024
     10 C          61.9484   87.9970   10.8083 C.3     1  UNL1        0.0269
     11 C          61.1791   88.4828    9.6158 C.3     1  UNL1        0.0884
     12 O          60.2619   88.2073    8.4614 O.3     1  UNL1       -0.3867
     13 C          61.6810   89.8752    9.8593 C.3     1  UNL1        0.0269
     14 C          61.5944   87.3659   10.5268 C.3     1  UNL1        0.0287
     15 C          63.4288   87.9169   12.8358 C.3     1  UNL1        0.0019
     16 H          60.0946   89.0312    7.9775 H       1  UNL1        0.2102
     17 C          63.5774   83.7347   10.4202 C.3     1  UNL1        0.1672
     18 C          64.2965   82.4203   10.3460 C.3     1  UNL1        0.0372
     19 C          64.3139   81.8232   11.7220 C.3     1  UNL1        0.0226
     20 C          64.1749   81.4862   13.1771 C.3     1  UNL1        0.0216
     21 C          63.6056   82.7685   12.6465 C.3     1  UNL1        0.0764
     22 N          63.1505   83.9498   11.8420 N.am    1  UNL1       -0.2691
     23 C          62.4000   85.1379   12.3670 C.2     1  UNL1        0.2403
     24 O          62.0399   85.2148   13.8211 O.2     1  UNL1       -0.2734
     25 N          63.0805   85.6045    8.1275 N.1     1  UNL1       -0.1942
     26 C          63.3289   84.6696    9.2738 C.1     1  UNL1        0.0925
@<TRIPOS>BOND
     1    25    26    3
     2    17    26    1
     3    17    18    1
     4    19    18    1
     5    19    20    1
     6    21    20    1
     7    21    22    1
     8    22    23   am
     9    23    24    2
    10    23     1    1
    11     1     2    1
    12     1     5    1
    13     5     6    1
    14     6     7    1
    15     7     8    1
    16     8     9    1
    17     9    10    1
    18    10    11    1
    19    11    12    1
    20    11    13    1
    21    11    14    1
    22     9    15    1
    23    22    17    1
    24    14     5    1
    25    21    19    1
    26    15     5    1
    27    13     7    1
    28     2     3    1
    29     2     4    1
    30    12    16    1
@<TRIPOS>MOLECULE
*****
 26 30 0 0 0
SMALL
GASTEIGER

@<TRIPOS>ATOM
      1 C          61.2844   87.4117   10.4929 C.3     1  UNL1        0.1285
      2 N          60.3481   86.9342   11.5632 N.3     1  UNL1       -0.3150
      3 H          60.1075   85.9576   11.3935 H       1  UNL1        0.1192
      4 H          59.4999   87.5006   11.5503 H       1  UNL1        0.1192
      5 C          61.7141   86.4774    9.4008 C.3     1  UNL1        0.0237
      6 C          60.8394   86.2755    8.1992 C.3     1  UNL1        0.0019
      7 C          61.2691   85.3412    7.1072 C.3     1  UNL1        0.0024
      8 C          62.5735   84.6088    7.2169 C.3     1  UNL1        0.0002
      9 C          63.4483   84.8107    8.4186 C.3     1  UNL1        0.0024
     10 C          60.7930   86.7016    8.8466 C.3     1  UNL1        0.0269
     11 C          59.5349   87.0078    8.0895 C.3     1  UNL1        0.0884
     12 O          58.2305   87.7402    7.9798 O.3     1  UNL1       -0.3867
     13 C          59.9646   86.0736    6.9975 C.3     1  UNL1        0.0269
     14 C          60.4096   87.2097    9.2911 C.3     1  UNL1        0.0287
     15 C          63.0186   85.7450    9.5105 C.3     1  UNL1        0.0019
     16 H          57.7926   87.4981    7.1488 H       1  UNL1        0.2102
     17 C          63.3369   88.3843   12.6506 C.3     1  UNL1        0.1672
     18 C          64.2769   89.2189   13.4692 C.3     1  UNL1        0.0372
     19 C          64.2945   90.6018   12.8884 C.3     1  UNL1        0.0226
     20 C          64.1074   91.8655   12.1022 C.3     1  UNL1        0.0216
     21 C          63.3654   90.6220   11.7110 C.3     1  UNL1        0.0764
     22 N          62.7736   89.2515   11.5640 N.am    1  UNL1       -0.2691
     23 C          61.7909   88.8233   10.5146 C.2     1  UNL1        0.2403
     24 O          61.3149   89.8069    9.4870 O.2     1  UNL1       -0.2734
     25 N          62.6961   85.4893   13.1067 N.1     1  UNL1       -0.1942
     26 C          63.0165   86.9368   12.8786 C.1     1  UNL1        0.0925
@<TRIPOS>BOND
     1    25    26    3
     2    17    26    1
     3    17    18    1
     4    19    18    1
     5    19    20    1
     6    21    20    1
     7    21    22    1
     8    22    23   am
     9    23    24    2
    10    23     1    1
    11     1     2    1
    12     1     5    1
    13     5     6    1
    14     6     7    1
    15     7     8    1
    16     8     9    1
    17     9    10    1
    18    10    11    1
    19    11    12    1
    20    11    13    1
    21    11    14    1
    22     9    15    1
    23    22    17    1
    24    14     5    1
    25    21    19    1
    26    15     5    1
    27    13     7    1
    28     2     3    1
    29     2     4    1
    30    12    16    1
@<TRIPOS>MOLECULE
*****
 26 30 0 0 0
SMALL
GASTEIGER

@<TRIPOS>ATOM
      1 C          66.2965   93.8175   12.4097 C.3     1  UNL1        0.1285
      2 N          67.3675   93.8364   13.4598 N.3     1  UNL1       -0.3150
      3 H          67.3130   92.9834   14.0164 H       1  UNL1        0.1192
      4 H          67.2356   94.6465   14.0654 H       1  UNL1        0.1192
      5 C          65.3595   92.6499   12.3150 C.3     1  UNL1        0.0237
      6 C          65.1843   91.7318   13.4882 C.3     1  UNL1        0.0019
      7 C          64.2474   90.5643   13.3934 C.3     1  UNL1        0.0024
      8 C          63.4856   90.3150   12.1255 C.3     1  UNL1        0.0002
      9 C          63.6607   91.2331   10.9524 C.3     1  UNL1        0.0024
     10 C          65.6074   92.3673   13.3467 C.3     1  UNL1        0.0269
     11 C          65.9461   91.9811   14.7560 C.3     1  UNL1        0.0884
     12 O          66.7079   92.2305   16.0239 O.3     1  UNL1       -0.3867
     13 C          65.0092   90.8136   14.6613 C.3     1  UNL1        0.0269
     14 C          66.1213   92.8993   13.5829 C.3     1  UNL1        0.0287
     15 C          64.5977   92.4006   11.0472 C.3     1  UNL1        0.0019
     16 H          66.4807   91.5500   16.6768 H       1  UNL1        0.2102
     17 C          67.6704   93.7778    9.5946 C.3     1  UNL1        0.1672
     18 C          68.1426   94.1443    8.2187 C.3     1  UNL1        0.0372
     19 C          67.5993   95.5030    7.8889 C.3     1  UNL1        0.0226
     20 C          66.9280   96.8437    7.8447 C.3     1  UNL1        0.0216
     21 C          66.7914   95.9762    9.0608 C.3     1  UNL1        0.0764
     22 N          66.8354   94.9100   10.1149 N.am    1  UNL1       -0.2691
     23 C          66.1625   94.9661   11.4544 C.2     1  UNL1        0.2403
     24 O          65.3555   96.1708   11.8384 O.2     1  UNL1       -0.2734
     25 N          68.2879   91.2280   11.0498 N.1     1  UNL1       -0.1942
     26 C          67.9792   92.5029   10.3222 C.1     1  UNL1        0.0925
@<TRIPOS>BOND
     1    25    26    3
     2    17    26    1
     3    17    18    1
     4    19    18    1
     5    19    20    1
     6    21    20    1
     7    21    22    1
     8    22    23   am
     9    23    24    2
    10    23     1    1
    11     1     2    1
    12     1     5    1
    13     5     6    1
    14     6     7    1
    15     7     8    1
    16     8     9    1
    17     9    10    1
    18    10    11    1
    19    11    12    1
    20    11    13    1
    21    11    14    1
    22     9    15    1
    23    22    17    1
    24    14     5    1
    25    21    19    1
    26    15     5    1
    27    13     7    1
    28     2     3    1
    29     2     4    1
    30    12    16    1
