@<TRIPOS>MOLECULE
*****
 35 39 0 0 0
SMALL
GASTEIGER

@<TRIPOS>ATOM
      1 N          64.9332   91.7038   12.0893 N.ar    1  UNL1       -0.2299
      2 C          64.4044   90.4622   12.7441 C.ar    1  UNL1        0.2753
      3 O          63.5194   89.5271   11.9743 O.2     1  UNL1       -0.2656
      4 C          64.7606   90.1556   14.1685 C.ar    1  UNL1        0.0604
      5 C          65.6456   91.0907   14.9382 C.ar    1  UNL1        0.0454
      6 C          66.1744   92.3323   14.2834 C.ar    1  UNL1        0.1850
      7 N          67.0608   93.4327   14.7868 N.ar    1  UNL1       -0.1270
      8 N          67.2524   94.4194   13.6733 N.ar    1  UNL1       -0.1269
      9 C          66.4845   93.9288   12.4819 C.ar    1  UNL1        0.1878
     10 N          65.8182   92.6388   12.8589 N.ar    1  UNL1       -0.2084
     11 C          64.2317   88.9139   14.8233 C.ar    1  UNL1        0.0031
     12 C          64.3700   87.5872   14.1373 C.ar    1  UNL1        0.0045
     13 C          63.8412   86.3456   14.7920 C.ar    1  UNL1        0.0556
     14 C          63.1741   86.4307   16.1328 C.ar    1  UNL1        0.0338
     15 C          63.0358   87.7575   16.8188 C.ar    1  UNL1        0.1363
     16 F          62.3687   87.8427   18.1597 F       1  UNL1       -0.2045
     17 C          63.5646   88.9991   16.1641 C.ar    1  UNL1        0.0058
     18 C          63.4264   90.3259   16.8500 C.3     1  UNL1        0.0334
     19 C          63.9795   85.0188   14.1060 C.2     1  UNL1        0.2459
     20 O          64.6429   83.8744   14.8133 O.2     1  UNL1       -0.2701
     21 N          63.4544   84.8365   12.7128 N.am    1  UNL1       -0.3025
     22 H          63.0190   85.5877   12.2486 H       1  UNL1        0.1497
     23 C          63.5927   83.5097   12.0268 C.3     1  UNL1        0.0720
     24 C          63.1776   82.0764   11.8748 C.3     1  UNL1        0.0213
     25 C          64.2475   82.6451   10.9907 C.3     1  UNL1        0.0213
     26 C          66.3980   94.6087   11.1476 C.ar    1  UNL1        0.0755
     27 C          65.7616   95.9623   11.0356 C.ar    1  UNL1        0.1439
     28 F          65.2117   96.6361   12.2578 F       1  UNL1       -0.2040
     29 C          65.6751   96.6423    9.7013 C.ar    1  UNL1        0.0298
     30 C          66.2249   95.9686    8.4792 C.ar    1  UNL1        0.0032
     31 C          66.8613   94.6149    8.5913 C.ar    1  UNL1        0.0116
     32 C          66.9479   93.9349    9.9254 C.ar    1  UNL1        0.0628
     33 CL         67.5842   92.5813   10.0375 Cl      1  UNL1       -0.0821
     34 C          63.2431   91.5945   10.1191 C.3     1  UNL1        0.0285
     35 C          64.5770   92.0103   10.6648 C.3     1  UNL1        0.1293
@<TRIPOS>BOND
     1    34    35    1
     2    35     1    1
     3     1     2   ar
     4     2     3    2
     5     2     4   ar
     6     4    11    1
     7    11    12   ar
     8    12    13   ar
     9    13    19    1
    10    19    20    2
    11    19    21   am
    12    21    23    1
    13    23    24    1
    14    24    25    1
    15    13    14   ar
    16    14    15   ar
    17    15    16    1
    18    15    17   ar
    19    17    18    1
    20     4     5   ar
    21     5     6   ar
    22     6     7   ar
    23     7     8   ar
    24     8     9   ar
    25     9    26    1
    26    26    27   ar
    27    27    28    1
    28    27    29   ar
    29    29    30   ar
    30    30    31   ar
    31    31    32   ar
    32    32    33    1
    33     9    10   ar
    34    10     1   ar
    35    17    11   ar
    36    10     6   ar
    37    25    23    1
    38    32    26   ar
    39    21    22    1
@<TRIPOS>MOLECULE
*****
 35 39 0 0 0
SMALL
GASTEIGER

@<TRIPOS>ATOM
      1 N          63.8754   86.1236   13.7785 N.ar    1  UNL1       -0.2299
      2 C          64.3566   87.4825   14.1929 C.ar    1  UNL1        0.2753
      3 O          65.2507   87.6291   15.3884 O.2     1  UNL1       -0.2656
      4 C          63.9439   88.6946   13.4118 C.ar    1  UNL1        0.0604
      5 C          63.0499   88.5480   12.2162 C.ar    1  UNL1        0.0454
      6 C          62.5687   87.1891   11.8019 C.ar    1  UNL1        0.1850
      7 N          61.6860   86.7370   10.6765 N.ar    1  UNL1       -0.1270
      8 N          61.5532   85.2453   10.7621 N.ar    1  UNL1       -0.1269
      9 C          62.3538   84.7755   11.9404 C.ar    1  UNL1        0.1878
     10 N          62.9814   85.9769   12.5830 N.ar    1  UNL1       -0.2084
     11 C          64.4252   90.0536   13.8262 C.ar    1  UNL1        0.0031
     12 C          65.1580   90.9209   12.8459 C.ar    1  UNL1        0.0045
     13 C          65.6393   92.2798   13.2603 C.ar    1  UNL1        0.0556
     14 C          65.3878   92.7715   14.6549 C.ar    1  UNL1        0.0338
     15 C          64.6550   91.9042   15.6352 C.ar    1  UNL1        0.1363
     16 F          64.4035   92.3958   17.0299 F       1  UNL1       -0.2045
     17 C          64.1737   90.5453   15.2208 C.ar    1  UNL1        0.0058
     18 C          63.4410   89.6780   16.2011 C.3     1  UNL1        0.0334
     19 C          66.3720   93.1471   12.2800 C.2     1  UNL1        0.2459
     20 O          67.6942   92.7030   11.7279 O.2     1  UNL1       -0.2701
     21 N          65.7826   94.4583   11.8518 N.am    1  UNL1       -0.3025
     22 H          64.9148   94.7497   12.2141 H       1  UNL1        0.1497
     23 C          66.5154   95.3255   10.8715 C.3     1  UNL1        0.0720
     24 C          67.3759   95.4656    9.6509 C.3     1  UNL1        0.0213
     25 C          66.9242   96.6875   10.3943 C.3     1  UNL1        0.0213
     26 C          62.5009   83.3540   12.3961 C.ar    1  UNL1        0.0755
     27 C          61.9939   82.9431   13.7466 C.ar    1  UNL1        0.1439
     28 F          61.3397   83.9536   14.6415 F       1  UNL1       -0.2040
     29 C          62.1410   81.5215   14.2023 C.ar    1  UNL1        0.0298
     30 C          62.7952   80.5110   13.3075 C.ar    1  UNL1        0.0032
     31 C          63.3022   80.9220   11.9568 C.ar    1  UNL1        0.0116
     32 C          63.1551   82.3435   11.5011 C.ar    1  UNL1        0.0628
     33 CL         63.6622   82.7544   10.1506 Cl      1  UNL1       -0.0821
     34 C          65.5097   84.1397   14.1569 C.3     1  UNL1        0.0285
     35 C          64.2881   84.9113   14.5597 C.3     1  UNL1        0.1293
@<TRIPOS>BOND
     1    34    35    1
     2    35     1    1
     3     1     2   ar
     4     2     3    2
     5     2     4   ar
     6     4    11    1
     7    11    12   ar
     8    12    13   ar
     9    13    19    1
    10    19    20    2
    11    19    21   am
    12    21    23    1
    13    23    24    1
    14    24    25    1
    15    13    14   ar
    16    14    15   ar
    17    15    16    1
    18    15    17   ar
    19    17    18    1
    20     4     5   ar
    21     5     6   ar
    22     6     7   ar
    23     7     8   ar
    24     8     9   ar
    25     9    26    1
    26    26    27   ar
    27    27    28    1
    28    27    29   ar
    29    29    30   ar
    30    30    31   ar
    31    31    32   ar
    32    32    33    1
    33     9    10   ar
    34    10     1   ar
    35    17    11   ar
    36    10     6   ar
    37    25    23    1
    38    32    26   ar
    39    21    22    1
@<TRIPOS>MOLECULE
*****
 35 39 0 0 0
SMALL
GASTEIGER

@<TRIPOS>ATOM
      1 N          72.1029   74.0523   13.4219 N.ar    1  UNL1       -0.2299
      2 C          72.5009   75.3449   12.7732 C.ar    1  UNL1        0.2753
      3 O          73.5377   75.3519   11.6891 O.2     1  UNL1       -0.2656
      4 C          71.8622   76.6303   13.2086 C.ar    1  UNL1        0.0604
      5 C          70.8254   76.6232   14.2926 C.ar    1  UNL1        0.0454
      6 C          70.4275   75.3306   14.9413 C.ar    1  UNL1        0.1850
      7 N          69.4423   75.0142   16.0273 N.ar    1  UNL1       -0.1270
      8 N          69.4722   73.5332   16.2631 N.ar    1  UNL1       -0.1269
      9 C          70.4758   72.9343   15.3229 C.ar    1  UNL1        0.1878
     10 N          71.0662   74.0451   14.5059 N.ar    1  UNL1       -0.2084
     11 C          72.2602   77.9229   12.5598 C.ar    1  UNL1        0.0031
     12 C          72.1715   78.0729   11.0700 C.ar    1  UNL1        0.0045
     13 C          72.5695   79.3655   10.4213 C.ar    1  UNL1        0.0556
     14 C          73.0562   80.5081   11.2624 C.ar    1  UNL1        0.0338
     15 C          73.1448   80.3581   12.7523 C.ar    1  UNL1        0.1363
     16 F          73.6315   81.5008   13.5935 F       1  UNL1       -0.2045
     17 C          72.7469   79.0656   13.4010 C.ar    1  UNL1        0.0058
     18 C          72.8355   78.9155   14.8909 C.3     1  UNL1        0.0334
     19 C          72.4808   79.5154    8.9314 C.2     1  UNL1        0.2459
     20 O          73.4896   78.8423    8.0486 O.2     1  UNL1       -0.2701
     21 N          71.3835   80.3385    8.3245 N.am    1  UNL1       -0.3025
     22 H          70.7214   80.7803    8.9039 H       1  UNL1        0.1497
     23 C          71.2949   80.4884    6.8346 C.3     1  UNL1        0.0720
     24 C          71.0272   79.8956    5.4829 C.3     1  UNL1        0.0213
     25 C          71.4091   81.3410    5.6057 C.3     1  UNL1        0.0213
     26 C          70.8273   71.4798   15.2180 C.ar    1  UNL1        0.0755
     27 C          70.3400   70.6727   14.0513 C.ar    1  UNL1        0.1439
     28 F          69.5013   71.3201   12.9895 F       1  UNL1       -0.2040
     29 C          70.6915   69.2182   13.9463 C.ar    1  UNL1        0.0298
     30 C          71.5302   68.5709   15.0081 C.ar    1  UNL1        0.0032
     31 C          72.0174   69.3780   16.1748 C.ar    1  UNL1        0.0116
     32 C          71.6660   70.8324   16.2798 C.ar    1  UNL1        0.0628
     33 CL         72.1533   71.6395   17.4465 Cl      1  UNL1       -0.0821
     34 C          72.4627   72.2160   11.6195 C.3     1  UNL1        0.0285
     35 C          72.7417   72.7668   12.9865 C.3     1  UNL1        0.1293
@<TRIPOS>BOND
     1    34    35    1
     2    35     1    1
     3     1     2   ar
     4     2     3    2
     5     2     4   ar
     6     4    11    1
     7    11    12   ar
     8    12    13   ar
     9    13    19    1
    10    19    20    2
    11    19    21   am
    12    21    23    1
    13    23    24    1
    14    24    25    1
    15    13    14   ar
    16    14    15   ar
    17    15    16    1
    18    15    17   ar
    19    17    18    1
    20     4     5   ar
    21     5     6   ar
    22     6     7   ar
    23     7     8   ar
    24     8     9   ar
    25     9    26    1
    26    26    27   ar
    27    27    28    1
    28    27    29   ar
    29    29    30   ar
    30    30    31   ar
    31    31    32   ar
    32    32    33    1
    33     9    10   ar
    34    10     1   ar
    35    17    11   ar
    36    10     6   ar
    37    25    23    1
    38    32    26   ar
    39    21    22    1
@<TRIPOS>MOLECULE
*****
 35 39 0 0 0
SMALL
GASTEIGER

@<TRIPOS>ATOM
      1 N          65.6345   91.6023   12.7592 N.ar    1  UNL1       -0.2299
      2 C          65.3487   90.5530   13.7923 C.ar    1  UNL1        0.2753
      3 O          66.2525   90.4045   14.9803 O.2     1  UNL1       -0.2656
      4 C          64.1593   89.6524   13.6375 C.ar    1  UNL1        0.0604
      5 C          63.2555   89.8010   12.4496 C.ar    1  UNL1        0.0454
      6 C          63.5413   90.8503   11.4165 C.ar    1  UNL1        0.1850
      7 N          62.8344   91.2297   10.1491 N.ar    1  UNL1       -0.1270
      8 N          63.5870   92.3648    9.5206 N.ar    1  UNL1       -0.1269
      9 C          64.7590   92.6870   10.3995 C.ar    1  UNL1        0.1878
     10 N          64.7308   91.7509   11.5713 N.ar    1  UNL1       -0.2084
     11 C          63.8735   88.6031   14.6708 C.ar    1  UNL1        0.0031
     12 C          63.9323   87.1506   14.3008 C.ar    1  UNL1        0.0045
     13 C          63.6465   86.1014   15.3339 C.ar    1  UNL1        0.0556
     14 C          63.3021   86.5046   16.7370 C.ar    1  UNL1        0.0338
     15 C          63.2433   87.9571   17.1070 C.ar    1  UNL1        0.1363
     16 F          62.8988   88.3603   18.5102 F       1  UNL1       -0.2045
     17 C          63.5291   89.0063   16.0739 C.ar    1  UNL1        0.0058
     18 C          63.4704   90.4588   16.4438 C.3     1  UNL1        0.0334
     19 C          63.7053   84.6489   14.9639 C.2     1  UNL1        0.2459
     20 O          65.0269   83.9413   14.9112 O.2     1  UNL1       -0.2701
     21 N          62.4425   83.9041   14.6466 N.am    1  UNL1       -0.3025
     22 H          61.5751   84.3686   14.6812 H       1  UNL1        0.1497
     23 C          62.5013   82.4516   14.2766 C.3     1  UNL1        0.0720
     24 C          63.2686   81.2753   13.7498 C.3     1  UNL1        0.0213
     25 C          61.8358   81.1122   14.1627 C.3     1  UNL1        0.0213
     26 C          65.7800   93.7573   10.1504 C.ar    1  UNL1        0.0755
     27 C          65.4027   95.2018   10.2950 C.ar    1  UNL1        0.1439
     28 F          64.0045   95.5761   10.6886 F       1  UNL1       -0.2040
     29 C          66.4237   96.2722   10.0459 C.ar    1  UNL1        0.0298
     30 C          67.8219   95.8980    9.6523 C.ar    1  UNL1        0.0032
     31 C          68.1991   94.4533    9.5077 C.ar    1  UNL1        0.0116
     32 C          67.1782   93.3830    9.7568 C.ar    1  UNL1        0.0628
     33 CL         67.5555   91.9384    9.6123 Cl      1  UNL1       -0.0821
     34 C          66.7322   93.7246   13.7796 C.3     1  UNL1        0.0285
     35 C          66.8240   92.5030   12.9140 C.3     1  UNL1        0.1293
@<TRIPOS>BOND
     1    34    35    1
     2    35     1    1
     3     1     2   ar
     4     2     3    2
     5     2     4   ar
     6     4    11    1
     7    11    12   ar
     8    12    13   ar
     9    13    19    1
    10    19    20    2
    11    19    21   am
    12    21    23    1
    13    23    24    1
    14    24    25    1
    15    13    14   ar
    16    14    15   ar
    17    15    16    1
    18    15    17   ar
    19    17    18    1
    20     4     5   ar
    21     5     6   ar
    22     6     7   ar
    23     7     8   ar
    24     8     9   ar
    25     9    26    1
    26    26    27   ar
    27    27    28    1
    28    27    29   ar
    29    29    30   ar
    30    30    31   ar
    31    31    32   ar
    32    32    33    1
    33     9    10   ar
    34    10     1   ar
    35    17    11   ar
    36    10     6   ar
    37    25    23    1
    38    32    26   ar
    39    21    22    1
@<TRIPOS>MOLECULE
*****
 35 39 0 0 0
SMALL
GASTEIGER

@<TRIPOS>ATOM
      1 N          63.4139   85.5748   12.6184 N.ar    1  UNL1       -0.2299
      2 C          63.4775   87.0578   12.8346 C.ar    1  UNL1        0.2753
      3 O          62.9938   87.9929   11.7660 O.2     1  UNL1       -0.2656
      4 C          64.0248   87.6057   14.1191 C.ar    1  UNL1        0.0604
      5 C          64.5086   86.6706   15.1876 C.ar    1  UNL1        0.0454
      6 C          64.4450   85.1876   14.9715 C.ar    1  UNL1        0.1850
      7 N          64.8448   84.0292   15.8365 N.ar    1  UNL1       -0.1270
      8 N          64.5446   82.7654   15.0864 N.ar    1  UNL1       -0.1269
      9 C          63.9592   83.1427   13.7579 C.ar    1  UNL1        0.1878
     10 N          63.8976   84.6397   13.6868 N.ar    1  UNL1       -0.2084
     11 C          64.0884   89.0887   14.3353 C.ar    1  UNL1        0.0031
     12 C          64.5528   89.9887   13.2287 C.ar    1  UNL1        0.0045
     13 C          64.6164   91.4717   13.4448 C.ar    1  UNL1        0.0556
     14 C          64.2157   92.0547   14.7675 C.ar    1  UNL1        0.0338
     15 C          63.7513   91.1547   15.8741 C.ar    1  UNL1        0.1363
     16 F          63.3506   91.7377   17.1969 F       1  UNL1       -0.2045
     17 C          63.6877   89.6717   15.6579 C.ar    1  UNL1        0.0058
     18 C          63.2234   88.7717   16.7645 C.3     1  UNL1        0.0334
     19 C          65.0808   92.3716   12.3383 C.2     1  UNL1        0.2459
     20 O          64.8357   91.9899   10.9085 O.2     1  UNL1       -0.2701
     21 N          65.7900   93.6532   12.6616 N.am    1  UNL1       -0.3025
     22 H          65.9508   93.9037   13.6000 H       1  UNL1        0.1497
     23 C          66.2544   94.5531   11.5549 C.3     1  UNL1        0.0720
     24 C          66.9080   94.7364   10.2173 C.3     1  UNL1        0.0213
     25 C          66.4049   95.9286   10.9759 C.3     1  UNL1        0.0213
     26 C          63.5136   82.1902   12.6882 C.ar    1  UNL1        0.0755
     27 C          64.1155   82.2680   11.3165 C.ar    1  UNL1        0.1439
     28 F          65.1629   83.2984   11.0144 F       1  UNL1       -0.2040
     29 C          63.6699   81.3155   10.2468 C.ar    1  UNL1        0.0298
     30 C          62.6225   80.2852   10.5488 C.ar    1  UNL1        0.0032
     31 C          62.0206   80.2074   11.9206 C.ar    1  UNL1        0.0116
     32 C          62.4661   81.1598   12.9903 C.ar    1  UNL1        0.0628
     33 CL         61.8643   81.0820   14.3620 Cl      1  UNL1       -0.0821
     34 C          61.5203   85.4701   10.8426 C.3     1  UNL1        0.0285
     35 C          62.8666   85.0270   11.3338 C.3     1  UNL1        0.1293
@<TRIPOS>BOND
     1    34    35    1
     2    35     1    1
     3     1     2   ar
     4     2     3    2
     5     2     4   ar
     6     4    11    1
     7    11    12   ar
     8    12    13   ar
     9    13    19    1
    10    19    20    2
    11    19    21   am
    12    21    23    1
    13    23    24    1
    14    24    25    1
    15    13    14   ar
    16    14    15   ar
    17    15    16    1
    18    15    17   ar
    19    17    18    1
    20     4     5   ar
    21     5     6   ar
    22     6     7   ar
    23     7     8   ar
    24     8     9   ar
    25     9    26    1
    26    26    27   ar
    27    27    28    1
    28    27    29   ar
    29    29    30   ar
    30    30    31   ar
    31    31    32   ar
    32    32    33    1
    33     9    10   ar
    34    10     1   ar
    35    17    11   ar
    36    10     6   ar
    37    25    23    1
    38    32    26   ar
    39    21    22    1
@<TRIPOS>MOLECULE
*****
 35 39 0 0 0
SMALL
GASTEIGER

@<TRIPOS>ATOM
      1 N          64.7395   90.6680   13.0310 N.ar    1  UNL1       -0.2299
      2 C          63.5490   89.8496   12.6275 C.ar    1  UNL1        0.2753
      3 O          63.0389   88.7697   13.5353 O.2     1  UNL1       -0.2656
      4 C          62.8687   90.1108   11.3166 C.ar    1  UNL1        0.0604
      5 C          63.3788   91.1907   10.4089 C.ar    1  UNL1        0.0454
      6 C          64.5693   92.0091   10.8123 C.ar    1  UNL1        0.1850
      7 N          65.2929   93.1322   10.1302 N.ar    1  UNL1       -0.1270
      8 N          66.4205   93.5649   11.0198 N.ar    1  UNL1       -0.1269
      9 C          66.3938   92.7093   12.2516 C.ar    1  UNL1        0.1878
     10 N          65.2497   91.7478   12.1233 N.ar    1  UNL1       -0.2084
     11 C          61.6781   89.2923   10.9132 C.ar    1  UNL1        0.0031
     12 C          61.7616   88.3829    9.7232 C.ar    1  UNL1        0.0045
     13 C          60.5710   87.5644    9.3198 C.ar    1  UNL1        0.0556
     14 C          59.2970   87.6554   10.1063 C.ar    1  UNL1        0.0338
     15 C          59.2136   88.5648   11.2963 C.ar    1  UNL1        0.1363
     16 F          57.9395   88.6559   12.0829 F       1  UNL1       -0.2045
     17 C          60.4041   89.3833   11.6997 C.ar    1  UNL1        0.0058
     18 C          60.3207   90.2928   12.8896 C.3     1  UNL1        0.0334
     19 C          60.6545   86.6550    8.1299 C.2     1  UNL1        0.2459
     20 O          59.5131   86.5833    7.1592 O.2     1  UNL1       -0.2701
     21 N          61.8793   85.8173    7.9106 N.am    1  UNL1       -0.3025
     22 H          62.6284   85.8643    8.5477 H       1  UNL1        0.1497
     23 C          61.9627   84.9078    6.7206 C.3     1  UNL1        0.0720
     24 C          61.3239   83.9095    5.8013 C.3     1  UNL1        0.0213
     25 C          62.7462   84.3311    5.5789 C.3     1  UNL1        0.0213
     26 C          67.3443   92.7995   13.4085 C.ar    1  UNL1        0.0755
     27 C          66.9921   93.6323   14.6053 C.ar    1  UNL1        0.1439
     28 F          65.6894   94.3749   14.6452 F       1  UNL1       -0.2040
     29 C          67.9426   93.7225   15.7623 C.ar    1  UNL1        0.0298
     30 C          69.2452   92.9800   15.7223 C.ar    1  UNL1        0.0032
     31 C          69.5974   92.1471   14.5254 C.ar    1  UNL1        0.0116
     32 C          68.6470   92.0569   13.3685 C.ar    1  UNL1        0.0628
     33 CL         68.9992   91.2241   12.1717 Cl      1  UNL1       -0.0821
     34 C          64.8578   90.9845   15.6070 C.3     1  UNL1        0.0285
     35 C          65.4199   90.4067   14.3420 C.3     1  UNL1        0.1293
@<TRIPOS>BOND
     1    34    35    1
     2    35     1    1
     3     1     2   ar
     4     2     3    2
     5     2     4   ar
     6     4    11    1
     7    11    12   ar
     8    12    13   ar
     9    13    19    1
    10    19    20    2
    11    19    21   am
    12    21    23    1
    13    23    24    1
    14    24    25    1
    15    13    14   ar
    16    14    15   ar
    17    15    16    1
    18    15    17   ar
    19    17    18    1
    20     4     5   ar
    21     5     6   ar
    22     6     7   ar
    23     7     8   ar
    24     8     9   ar
    25     9    26    1
    26    26    27   ar
    27    27    28    1
    28    27    29   ar
    29    29    30   ar
    30    30    31   ar
    31    31    32   ar
    32    32    33    1
    33     9    10   ar
    34    10     1   ar
    35    17    11   ar
    36    10     6   ar
    37    25    23    1
    38    32    26   ar
    39    21    22    1
