@<TRIPOS>MOLECULE
*****
 31 33 0 0 0
SMALL
GASTEIGER

@<TRIPOS>ATOM
      1 C          63.6599   90.1473   12.4749 C.2     1  UNL1       -0.0034
      2 C          63.1065   90.2234   11.0828 C.2     1  UNL1        0.0769
      3 N          63.7049   91.4237   10.4111 N.2     1  UNL1       -0.2497
      4 C          64.6282   92.0894   11.3881 C.2     1  UNL1        0.0631
      5 C          65.4906   93.3120   11.2810 C.3     1  UNL1        0.0724
      6 C          66.3252   93.7457   12.4494 C.2     1  UNL1       -0.0095
      7 C          66.2973   92.9568   13.7250 C.2     1  UNL1        0.0646
      8 C          65.4349   91.7342   13.8320 C.2     1  UNL1        0.0109
      9 C          64.6003   91.3005   12.6636 C.2     1  UNL1        0.0120
     10 C          62.1267   89.2671   10.4700 C.ar    1  UNL1        0.0175
     11 C          60.9816   89.7876    9.6529 C.ar    1  UNL1        0.0038
     12 C          60.0018   88.8313    9.0401 C.ar    1  UNL1        0.0297
     13 C          60.1671   87.3545    9.2444 C.ar    1  UNL1        0.1401
     14 F          59.1873   86.3982    8.6316 F       1  UNL1       -0.2042
     15 C          61.3122   86.8341   10.0616 C.ar    1  UNL1        0.0297
     16 C          62.2920   87.7903   10.6744 C.ar    1  UNL1        0.0038
     17 C          67.1320   93.3906   14.8934 C.1     1  UNL1        0.1001
     18 N          67.9666   93.8243   16.0618 N.1     1  UNL1       -0.1908
     19 C          63.3307   89.1015   13.4986 C.3     1  UNL1        0.0284
     20 C          64.4332   88.3947   14.2302 C.3     1  UNL1        0.0143
     21 C          64.1061   87.3083   15.2113 C.3     1  UNL1        0.0870
     22 N          62.7929   85.1568   14.5817 N.am    1  UNL1       -0.1749
     23 C          64.0964   85.8754   14.7678 C.2     1  UNL1        0.2417
     24 O          65.3900   85.1610   14.5105 O.2     1  UNL1       -0.2735
     25 H          61.9438   85.6257   14.7505 H       1  UNL1        0.1776
     26 S          62.7830   83.7239   14.1381 S.O2    1  UNL1        0.1151
     27 O          62.6740   84.1669   12.7092 O.2     1  UNL1       -0.1378
     28 O          62.8921   83.2809   15.5671 O.2     1  UNL1       -0.1378
     29 C          61.6726   81.3750   14.1416 C.3     1  UNL1        0.1163
     30 N          62.7732   82.2910   13.6947 N.3     1  UNL1       -0.1398
     31 C          63.8641   81.7740   12.8044 C.3     1  UNL1        0.1163
@<TRIPOS>BOND
     1    29    30    1
     2    30    31    1
     3    30    26    1
     4    26    27    2
     5    26    28    2
     6    26    22    1
     7    22    23   am
     8    23    24    2
     9    23    21    1
    10    21    20    1
    11    20    19    1
    12    19     1    1
    13     1     2    2
    14     2    10    1
    15    10    11   ar
    16    11    12   ar
    17    12    13   ar
    18    13    14    1
    19    13    15   ar
    20    15    16   ar
    21     2     3    1
    22     3     4    2
    23     4     5    1
    24     5     6    1
    25     6     7    2
    26     7    17    1
    27    17    18    3
    28     7     8    1
    29     8     9    2
    30     9     1    1
    31    16    10   ar
    32     9     4    1
    33    22    25    1
@<TRIPOS>MOLECULE
*****
 31 33 0 0 0
SMALL
GASTEIGER

@<TRIPOS>ATOM
      1 C          64.4778   90.2214   13.3322 C.2     1  UNL1       -0.0034
      2 C          65.3365   91.4330   13.1211 C.2     1  UNL1        0.0769
      3 N          64.9335   92.0662   11.8224 N.2     1  UNL1       -0.2497
      4 C          63.8257   91.2460   11.2308 C.2     1  UNL1        0.0631
      5 C          63.0370   91.3900    9.9631 C.3     1  UNL1        0.0724
      6 C          61.9667   90.3938    9.6284 C.2     1  UNL1       -0.0095
      7 C          61.6851   89.2536   10.5615 C.2     1  UNL1        0.0646
      8 C          62.4738   89.1096   11.8293 C.2     1  UNL1        0.0109
      9 C          63.5441   90.1058   12.1639 C.2     1  UNL1        0.0120
     10 C          66.4098   91.9251   14.0463 C.ar    1  UNL1        0.0175
     11 C          66.0456   92.4659   15.3971 C.ar    1  UNL1        0.0038
     12 C          67.1189   92.9580   16.3223 C.ar    1  UNL1        0.0297
     13 C          68.5564   92.9091   15.8966 C.ar    1  UNL1        0.1401
     14 F          69.6297   93.4012   16.8218 F       1  UNL1       -0.2042
     15 C          68.9206   92.3683   14.5458 C.ar    1  UNL1        0.0297
     16 C          67.8473   91.8762   13.6206 C.ar    1  UNL1        0.0038
     17 C          60.6148   88.2574   10.2268 C.1     1  UNL1        0.1001
     18 N          59.5445   87.2612    9.8921 N.1     1  UNL1       -0.1908
     19 C          64.5416   89.2891   14.5055 C.3     1  UNL1        0.0284
     20 C          63.9608   87.9100   14.4001 C.3     1  UNL1        0.0143
     21 C          64.7106   86.7359   14.9564 C.3     1  UNL1        0.0870
     22 N          62.9603   84.9397   14.2784 N.am    1  UNL1       -0.1749
     23 C          64.3885   85.3488   14.4851 C.2     1  UNL1        0.2417
     24 O          65.4947   84.3709   14.2204 O.2     1  UNL1       -0.2735
     25 H          62.2343   85.5816   14.4521 H       1  UNL1        0.1776
     26 S          62.6381   83.5525   13.8070 S.O2    1  UNL1        0.1151
     27 O          62.6684   84.0287   12.3850 O.2     1  UNL1       -0.1378
     28 O          62.6079   83.0764   15.2291 O.2     1  UNL1       -0.1378
     29 C          62.8676   81.6691   12.0322 C.3     1  UNL1        0.1163
     30 N          62.3160   82.1654   13.3358 N.3     1  UNL1       -0.1398
     31 C          61.4423   81.2746   14.1682 C.3     1  UNL1        0.1163
@<TRIPOS>BOND
     1    29    30    1
     2    30    31    1
     3    30    26    1
     4    26    27    2
     5    26    28    2
     6    26    22    1
     7    22    23   am
     8    23    24    2
     9    23    21    1
    10    21    20    1
    11    20    19    1
    12    19     1    1
    13     1     2    2
    14     2    10    1
    15    10    11   ar
    16    11    12   ar
    17    12    13   ar
    18    13    14    1
    19    13    15   ar
    20    15    16   ar
    21     2     3    1
    22     3     4    2
    23     4     5    1
    24     5     6    1
    25     6     7    2
    26     7    17    1
    27    17    18    3
    28     7     8    1
    29     8     9    2
    30     9     1    1
    31    16    10   ar
    32     9     4    1
    33    22    25    1
@<TRIPOS>MOLECULE
*****
 31 33 0 0 0
SMALL
GASTEIGER

@<TRIPOS>ATOM
      1 C          64.0724   90.5943   13.2373 C.2     1  UNL1       -0.0034
      2 C          64.6214   90.0692   14.5307 C.2     1  UNL1        0.0769
      3 N          65.7664   90.9479   14.9390 N.2     1  UNL1       -0.2497
      4 C          65.9251   92.0161   13.8980 C.2     1  UNL1        0.0631
      5 C          66.8877   93.1596   13.7718 C.3     1  UNL1        0.0724
      6 C          66.8033   94.0845   12.5940 C.2     1  UNL1       -0.0095
      7 C          65.7564   93.8659   11.5422 C.2     1  UNL1        0.0646
      8 C          64.7938   92.7225   11.6684 C.2     1  UNL1        0.0109
      9 C          64.8782   91.7976   12.8462 C.2     1  UNL1        0.0120
     10 C          64.1143   88.8750   15.2836 C.ar    1  UNL1        0.0175
     11 C          64.4846   87.4926   14.8345 C.ar    1  UNL1        0.0038
     12 C          63.9776   86.2984   15.5874 C.ar    1  UNL1        0.0297
     13 C          63.1003   86.4866   16.7893 C.ar    1  UNL1        0.1401
     14 F          62.5932   85.2924   17.5422 F       1  UNL1       -0.2042
     15 C          62.7300   87.8690   17.2384 C.ar    1  UNL1        0.0297
     16 C          63.2370   89.0632   16.4855 C.ar    1  UNL1        0.0038
     17 C          65.6720   94.7909   10.3643 C.1     1  UNL1        0.1001
     18 N          65.5877   95.7158    9.1865 N.1     1  UNL1       -0.1908
     19 C          62.9200   90.0175   12.4697 C.3     1  UNL1        0.0284
     20 C          63.1417   88.8610   11.5403 C.3     1  UNL1        0.0143
     21 C          61.9715   88.0715   11.0331 C.3     1  UNL1        0.0870
     22 N          62.7979   85.9233   12.2380 N.am    1  UNL1       -0.1749
     23 C          61.9481   86.5800   11.1909 C.2     1  UNL1        0.2417
     24 O          61.0749   85.7453   10.3016 O.2     1  UNL1       -0.2735
     25 H          63.3710   86.4712   12.8217 H       1  UNL1        0.1776
     26 S          62.7746   84.4317   12.3959 S.O2    1  UNL1        0.1151
     27 O          63.5427   84.2843   11.1160 O.2     1  UNL1       -0.1378
     28 O          62.0064   84.5793   13.6758 O.2     1  UNL1       -0.1378
     29 C          62.3367   82.3308   13.8603 C.3     1  UNL1        0.1163
     30 N          62.7512   82.9403   12.5539 N.3     1  UNL1       -0.1398
     31 C          63.1423   82.0583   11.4053 C.3     1  UNL1        0.1163
@<TRIPOS>BOND
     1    29    30    1
     2    30    31    1
     3    30    26    1
     4    26    27    2
     5    26    28    2
     6    26    22    1
     7    22    23   am
     8    23    24    2
     9    23    21    1
    10    21    20    1
    11    20    19    1
    12    19     1    1
    13     1     2    2
    14     2    10    1
    15    10    11   ar
    16    11    12   ar
    17    12    13   ar
    18    13    14    1
    19    13    15   ar
    20    15    16   ar
    21     2     3    1
    22     3     4    2
    23     4     5    1
    24     5     6    1
    25     6     7    2
    26     7    17    1
    27    17    18    3
    28     7     8    1
    29     8     9    2
    30     9     1    1
    31    16    10   ar
    32     9     4    1
    33    22    25    1
@<TRIPOS>MOLECULE
*****
 31 33 0 0 0
SMALL
GASTEIGER

@<TRIPOS>ATOM
      1 C          61.7512   88.5341   10.5100 C.2     1  UNL1       -0.0034
      2 C          62.0027   87.1622   11.0620 C.2     1  UNL1        0.0769
      3 N          61.2670   86.1756   10.2045 N.2     1  UNL1       -0.2497
      4 C          60.5608   86.9376    9.1226 C.2     1  UNL1        0.0631
      5 C          59.6840   86.4926    7.9899 C.3     1  UNL1        0.0724
      6 C          59.1064   87.5052    7.0460 C.2     1  UNL1       -0.0095
      7 C          59.4056   88.9629    7.2348 C.2     1  UNL1        0.0646
      8 C          60.2824   89.4079    8.3675 C.2     1  UNL1        0.0109
      9 C          60.8600   88.3953    9.3114 C.2     1  UNL1        0.0120
     10 C          62.8425   86.8345   12.2609 C.ar    1  UNL1        0.0175
     11 C          63.4715   87.9371   13.0600 C.ar    1  UNL1        0.0038
     12 C          64.3113   87.6094   14.2589 C.ar    1  UNL1        0.0297
     13 C          64.5220   86.1792   14.6588 C.ar    1  UNL1        0.1401
     14 F          65.3617   85.8515   15.8577 F       1  UNL1       -0.2042
     15 C          63.8929   85.0766   13.8597 C.ar    1  UNL1        0.0297
     16 C          63.0532   85.4043   12.6607 C.ar    1  UNL1        0.0038
     17 C          58.8279   89.9755    6.2909 C.1     1  UNL1        0.1001
     18 N          58.2502   90.9880    5.3470 N.1     1  UNL1       -0.1908
     19 C          62.2952   89.8192   11.0600 C.3     1  UNL1        0.0284
     20 C          63.5232   90.4334   10.4558 C.3     1  UNL1        0.0143
     21 C          63.9918   91.7817   10.9168 C.3     1  UNL1        0.0870
     22 N          65.9795   92.5394   12.4083 N.am    1  UNL1       -0.1749
     23 C          64.6127   91.9364   12.2734 C.2     1  UNL1        0.2417
     24 O          63.8669   91.4880   13.4952 O.2     1  UNL1       -0.2735
     25 H          66.4690   92.8336   11.6064 H       1  UNL1        0.1776
     26 S          66.6005   92.6940   13.7650 S.O2    1  UNL1        0.1151
     27 O          66.0570   94.0892   13.8547 O.2     1  UNL1       -0.1378
     28 O          67.1440   91.2989   13.6751 O.2     1  UNL1       -0.1378
     29 C          66.3869   92.6636   16.3541 C.3     1  UNL1        0.1163
     30 N          67.2216   92.8486   15.1215 N.3     1  UNL1       -0.1398
     31 C          68.6773   93.1883   15.2456 C.3     1  UNL1        0.1163
@<TRIPOS>BOND
     1    29    30    1
     2    30    31    1
     3    30    26    1
     4    26    27    2
     5    26    28    2
     6    26    22    1
     7    22    23   am
     8    23    24    2
     9    23    21    1
    10    21    20    1
    11    20    19    1
    12    19     1    1
    13     1     2    2
    14     2    10    1
    15    10    11   ar
    16    11    12   ar
    17    12    13   ar
    18    13    14    1
    19    13    15   ar
    20    15    16   ar
    21     2     3    1
    22     3     4    2
    23     4     5    1
    24     5     6    1
    25     6     7    2
    26     7    17    1
    27    17    18    3
    28     7     8    1
    29     8     9    2
    30     9     1    1
    31    16    10   ar
    32     9     4    1
    33    22    25    1
@<TRIPOS>MOLECULE
*****
 31 33 0 0 0
SMALL
GASTEIGER

@<TRIPOS>ATOM
      1 C          63.0663   88.8475   12.1098 C.2     1  UNL1       -0.0034
      2 C          63.1504   90.3044   12.4567 C.2     1  UNL1        0.0769
      3 N          62.2957   91.0624   11.4847 N.2     1  UNL1       -0.2497
      4 C          61.6834   90.0740   10.5370 C.2     1  UNL1        0.0631
      5 C          60.7537   90.2436    9.3721 C.3     1  UNL1        0.0724
      6 C          60.3003   89.0443    8.5937 C.2     1  UNL1       -0.0095
      7 C          60.7766   87.6754    8.9800 C.2     1  UNL1        0.0646
      8 C          61.7063   87.5058   10.1448 C.2     1  UNL1        0.0109
      9 C          62.1597   88.7051   10.9233 C.2     1  UNL1        0.0120
     10 C          63.9490   90.8989   13.5787 C.ar    1  UNL1        0.0175
     11 C          65.2414   91.6027   13.2886 C.ar    1  UNL1        0.0038
     12 C          66.0400   92.1972   14.4106 C.ar    1  UNL1        0.0297
     13 C          65.5461   92.0879   15.8227 C.ar    1  UNL1        0.1401
     14 F          66.3446   92.6824   16.9447 F       1  UNL1       -0.2042
     15 C          64.2536   91.3841   16.1128 C.ar    1  UNL1        0.0297
     16 C          63.4551   90.7896   14.9908 C.ar    1  UNL1        0.0038
     17 C          60.3231   86.4761    8.2014 C.1     1  UNL1        0.1001
     18 N          59.8697   85.2768    7.4229 N.1     1  UNL1       -0.1908
     19 C          63.7661   87.7293   12.8239 C.3     1  UNL1        0.0284
     20 C          64.2317   87.9173   14.2374 C.3     1  UNL1        0.0143
     21 C          64.3867   86.7295   15.1402 C.3     1  UNL1        0.0870
     22 N          62.8001   84.7812   14.4794 N.am    1  UNL1       -0.1749
     23 C          64.1850   85.3450   14.5994 C.2     1  UNL1        0.2417
     24 O          65.3679   84.5244   14.1784 O.2     1  UNL1       -0.2735
     25 H          62.0237   85.3198   14.7557 H       1  UNL1        0.1776
     26 S          62.5983   83.3967   13.9385 S.O2    1  UNL1        0.1151
     27 O          62.4795   83.9558   12.5517 O.2     1  UNL1       -0.1378
     28 O          62.7171   82.8376   15.3253 O.2     1  UNL1       -0.1378
     29 C          63.2003   81.5417   12.2220 C.3     1  UNL1        0.1163
     30 N          62.3965   82.0122   13.3977 N.3     1  UNL1       -0.1398
     31 C          61.3907   81.0983   14.0327 C.3     1  UNL1        0.1163
@<TRIPOS>BOND
     1    29    30    1
     2    30    31    1
     3    30    26    1
     4    26    27    2
     5    26    28    2
     6    26    22    1
     7    22    23   am
     8    23    24    2
     9    23    21    1
    10    21    20    1
    11    20    19    1
    12    19     1    1
    13     1     2    2
    14     2    10    1
    15    10    11   ar
    16    11    12   ar
    17    12    13   ar
    18    13    14    1
    19    13    15   ar
    20    15    16   ar
    21     2     3    1
    22     3     4    2
    23     4     5    1
    24     5     6    1
    25     6     7    2
    26     7    17    1
    27    17    18    3
    28     7     8    1
    29     8     9    2
    30     9     1    1
    31    16    10   ar
    32     9     4    1
    33    22    25    1
@<TRIPOS>MOLECULE
*****
 31 33 0 0 0
SMALL
GASTEIGER

@<TRIPOS>ATOM
      1 C          61.5929   88.0751   10.8242 C.2     1  UNL1       -0.0034
      2 C          62.0171   86.6863   11.2001 C.2     1  UNL1        0.0769
      3 N          61.5598   85.7533   10.1183 N.2     1  UNL1       -0.2497
      4 C          60.8530   86.5654    9.0739 C.2     1  UNL1        0.0631
      5 C          60.1934   86.1837    7.7819 C.3     1  UNL1        0.0724
      6 C          59.5544   87.2370    6.9262 C.2     1  UNL1       -0.0095
      7 C          59.5749   88.6720    7.3625 C.2     1  UNL1        0.0646
      8 C          60.2344   89.0537    8.6545 C.2     1  UNL1        0.0109
      9 C          60.8735   88.0004    9.5101 C.2     1  UNL1        0.0120
     10 C          62.7669   86.2986   12.4401 C.ar    1  UNL1        0.0175
     11 C          62.7318   84.8796   12.9249 C.ar    1  UNL1        0.0038
     12 C          63.4816   84.4919   14.1648 C.ar    1  UNL1        0.0297
     13 C          64.2664   85.5232   14.9200 C.ar    1  UNL1        0.1401
     14 F          65.0162   85.1355   16.1600 F       1  UNL1       -0.2042
     15 C          64.3015   86.9422   14.4352 C.ar    1  UNL1        0.0297
     16 C          63.5517   87.3299   13.1953 C.ar    1  UNL1        0.0038
     17 C          58.9358   89.7252    6.5068 C.1     1  UNL1        0.1001
     18 N          58.2967   90.7785    5.6511 N.1     1  UNL1       -0.1908
     19 C          61.8441   89.3201   11.6223 C.3     1  UNL1        0.0284
     20 C          63.0396   90.1751   11.3220 C.3     1  UNL1        0.0143
     21 C          63.7437   90.8966   12.4327 C.3     1  UNL1        0.0870
     22 N          65.1220   92.2391   10.6871 N.am    1  UNL1       -0.1749
     23 C          64.7726   91.9407   12.1150 C.2     1  UNL1        0.2417
     24 O          65.4521   92.6865   13.2250 O.2     1  UNL1       -0.2735
     25 H          64.6761   91.7496    9.9585 H       1  UNL1        0.1776
     26 S          66.1510   93.2833   10.3692 S.O2    1  UNL1        0.1151
     27 O          67.1981   92.2157   10.2518 O.2     1  UNL1       -0.1378
     28 O          65.1039   94.3508   10.4865 O.2     1  UNL1       -0.1378
     29 C          66.9692   95.7462   10.4904 C.3     1  UNL1        0.1163
     30 N          67.1799   94.3275   10.0513 N.3     1  UNL1       -0.1398
     31 C          68.4195   93.9529    9.2943 C.3     1  UNL1        0.1163
@<TRIPOS>BOND
     1    29    30    1
     2    30    31    1
     3    30    26    1
     4    26    27    2
     5    26    28    2
     6    26    22    1
     7    22    23   am
     8    23    24    2
     9    23    21    1
    10    21    20    1
    11    20    19    1
    12    19     1    1
    13     1     2    2
    14     2    10    1
    15    10    11   ar
    16    11    12   ar
    17    12    13   ar
    18    13    14    1
    19    13    15   ar
    20    15    16   ar
    21     2     3    1
    22     3     4    2
    23     4     5    1
    24     5     6    1
    25     6     7    2
    26     7    17    1
    27    17    18    3
    28     7     8    1
    29     8     9    2
    30     9     1    1
    31    16    10   ar
    32     9     4    1
    33    22    25    1
@<TRIPOS>MOLECULE
*****
 31 33 0 0 0
SMALL
GASTEIGER

@<TRIPOS>ATOM
      1 C          62.9752   84.7052   11.9584 C.2     1  UNL1       -0.0034
      2 C          63.4307   83.4284   12.6005 C.2     1  UNL1        0.0769
      3 N          64.1730   83.7800   13.8557 N.2     1  UNL1       -0.2497
      4 C          64.1762   85.2740   13.9893 C.2     1  UNL1        0.0631
      5 C          64.7576   86.1876   15.0272 C.3     1  UNL1        0.0724
      6 C          64.5987   87.6730   14.8925 C.2     1  UNL1       -0.0095
      7 C          63.8584   88.2449   13.7200 C.2     1  UNL1        0.0646
      8 C          63.2770   87.3313   12.6821 C.2     1  UNL1        0.0109
      9 C          63.4359   85.8459   12.8167 C.2     1  UNL1        0.0120
     10 C          63.1868   82.0433   12.0790 C.ar    1  UNL1        0.0175
     11 C          62.7329   80.9599   13.0118 C.ar    1  UNL1        0.0038
     12 C          62.4890   79.5747   12.4903 C.ar    1  UNL1        0.0297
     13 C          62.6990   79.2731   11.0360 C.ar    1  UNL1        0.1401
     14 F          62.4550   77.8880   10.5145 F       1  UNL1       -0.2042
     15 C          63.1529   80.3565   10.1033 C.ar    1  UNL1        0.0297
     16 C          63.3968   81.7417   10.6248 C.ar    1  UNL1        0.0038
     17 C          63.6995   89.7304   13.5853 C.1     1  UNL1        0.1001
     18 N          63.5406   91.2158   13.4507 N.1     1  UNL1       -0.1908
     19 C          62.1957   84.8211   10.6821 C.3     1  UNL1        0.0284
     20 C          62.8388   85.4098    9.4613 C.3     1  UNL1        0.0143
     21 C          62.1897   86.5619    8.7534 C.3     1  UNL1        0.0870
     22 N          61.3809   88.3066   10.5003 N.am    1  UNL1       -0.1749
     23 C          61.0753   87.3170    9.4152 C.2     1  UNL1        0.2417
     24 O          59.6555   87.0827    8.9919 O.2     1  UNL1       -0.2735
     25 H          62.3128   88.4604   10.7781 H       1  UNL1        0.1776
     26 S          60.2665   89.0618   11.1622 S.O2    1  UNL1        0.1151
     27 O          60.5211   90.2305   10.2571 O.2     1  UNL1       -0.1378
     28 O          60.0120   87.8930   12.0672 O.2     1  UNL1       -0.1378
     29 C          58.9255   91.2623   11.4932 C.3     1  UNL1        0.1163
     30 N          59.1522   89.8169   11.8240 N.3     1  UNL1       -0.1398
     31 C          58.2646   89.1265   12.8168 C.3     1  UNL1        0.1163
@<TRIPOS>BOND
     1    29    30    1
     2    30    31    1
     3    30    26    1
     4    26    27    2
     5    26    28    2
     6    26    22    1
     7    22    23   am
     8    23    24    2
     9    23    21    1
    10    21    20    1
    11    20    19    1
    12    19     1    1
    13     1     2    2
    14     2    10    1
    15    10    11   ar
    16    11    12   ar
    17    12    13   ar
    18    13    14    1
    19    13    15   ar
    20    15    16   ar
    21     2     3    1
    22     3     4    2
    23     4     5    1
    24     5     6    1
    25     6     7    2
    26     7    17    1
    27    17    18    3
    28     7     8    1
    29     8     9    2
    30     9     1    1
    31    16    10   ar
    32     9     4    1
    33    22    25    1
@<TRIPOS>MOLECULE
*****
 31 33 0 0 0
SMALL
GASTEIGER

@<TRIPOS>ATOM
      1 C          61.2826   86.5624   10.8095 C.2     1  UNL1       -0.0034
      2 C          61.2760   86.5789    9.3097 C.2     1  UNL1        0.0769
      3 N          62.1996   85.4986    8.8303 N.2     1  UNL1       -0.2497
      4 C          62.7771   84.8145   10.0339 C.2     1  UNL1        0.0631
      5 C          63.7457   83.6778   10.1740 C.3     1  UNL1        0.0724
      6 C          64.1476   83.1987   11.5374 C.2     1  UNL1       -0.0095
      7 C          63.5808   83.8562   12.7607 C.2     1  UNL1        0.0646
      8 C          62.6121   84.9929   12.6206 C.2     1  UNL1        0.0109
      9 C          62.2103   85.4720   11.2572 C.2     1  UNL1        0.0120
     10 C          60.4847   87.5118    8.4416 C.ar    1  UNL1        0.0175
     11 C          60.7504   88.9872    8.4890 C.ar    1  UNL1        0.0038
     12 C          59.9591   89.9201    7.6210 C.ar    1  UNL1        0.0297
     13 C          58.9021   89.3775    6.7054 C.ar    1  UNL1        0.1401
     14 F          58.1108   90.3104    5.8373 F       1  UNL1       -0.2042
     15 C          58.6364   87.9021    6.6579 C.ar    1  UNL1        0.0297
     16 C          59.4277   86.9692    7.5260 C.ar    1  UNL1        0.0038
     17 C          63.9827   83.3771   14.1241 C.1     1  UNL1        0.1001
     18 N          64.3846   82.8979   15.4875 N.1     1  UNL1       -0.1908
     19 C          60.4990   87.4761   11.7047 C.3     1  UNL1        0.0284
     20 C          60.9215   88.9056   11.8723 C.3     1  UNL1        0.0143
     21 C          62.3336   89.3108   11.5695 C.3     1  UNL1        0.0870
     22 N          63.5653   91.0980   12.9973 N.am    1  UNL1       -0.1749
     23 C          63.2698   89.6602   12.6881 C.2     1  UNL1        0.2417
     24 O          63.9105   88.5720   13.4976 O.2     1  UNL1       -0.2735
     25 H          63.1448   91.8122   12.4660 H       1  UNL1        0.1776
     26 S          64.5015   91.4475   14.1160 S.O2    1  UNL1        0.1151
     27 O          63.4107   91.1837   15.1113 O.2     1  UNL1       -0.1378
     28 O          65.5922   91.7113   13.1207 O.2     1  UNL1       -0.1378
     29 C          66.9204   91.6962   15.0309 C.3     1  UNL1        0.1163
     30 N          65.4377   91.7970   15.2346 N.3     1  UNL1       -0.1398
     31 C          64.8912   92.2474   16.5569 C.3     1  UNL1        0.1163
@<TRIPOS>BOND
     1    29    30    1
     2    30    31    1
     3    30    26    1
     4    26    27    2
     5    26    28    2
     6    26    22    1
     7    22    23   am
     8    23    24    2
     9    23    21    1
    10    21    20    1
    11    20    19    1
    12    19     1    1
    13     1     2    2
    14     2    10    1
    15    10    11   ar
    16    11    12   ar
    17    12    13   ar
    18    13    14    1
    19    13    15   ar
    20    15    16   ar
    21     2     3    1
    22     3     4    2
    23     4     5    1
    24     5     6    1
    25     6     7    2
    26     7    17    1
    27    17    18    3
    28     7     8    1
    29     8     9    2
    30     9     1    1
    31    16    10   ar
    32     9     4    1
    33    22    25    1
