@<TRIPOS>MOLECULE
*****
 49 52 0 0 0
SMALL
GASTEIGER

@<TRIPOS>ATOM
      1 C          61.7454   87.6837   10.7040 C.3     1  UNL1        0.0760
      2 C          60.2579   88.8893    8.9479 C.2     1  UNL1        0.2429
      3 O          60.0309   90.0149    9.9129 O.2     1  UNL1       -0.2732
      4 N          61.1152   87.7237    9.3434 N.am    1  UNL1       -0.3042
      5 H          61.2642   86.9849    8.7100 H       1  UNL1        0.1494
      6 CA         59.6278   88.9293    7.5872 C.3     1  UNL1        0.1793
      7 C          58.9304   92.3232    3.7148 C.3     1  UNL1        0.1168
      8 N          59.8474   91.5181    4.5872 N.am    1  UNL1       -0.2578
      9 C          59.2791   90.6263    5.6510 C.2     1  UNL1        0.3046
     10 O          57.7939   90.5394    5.8424 O.2     1  UNL1       -0.2526
     11 N          60.1961   89.8212    6.5234 N.am    1  UNL1       -0.2805
     12 H          61.1709   89.8782    6.3978 H       1  UNL1        0.1514
     13 C          61.3326   91.6049    4.3959 C.3     1  UNL1        0.1297
     14 C          61.8933   92.2126    3.1443 C.ar    1  UNL1        0.0479
     15 C          61.1875   93.1802    2.2412 C.ar    1  UNL1        0.1033
     16 N          62.1163   93.5250    1.1149 N.ar    1  UNL1       -0.2350
     17 C          63.3961   92.7705    1.3219 C.ar    1  UNL1        0.1343
     18 S          63.2583   91.9594    2.5762 S.2     1  UNL1       -0.0671
     19 C          58.4294   88.0775    7.2904 C.3     1  UNL1        0.1661
     20 O          58.4285   86.6261    7.6690 O.3     1  UNL1       -0.3798
     21 H          59.0960   86.1551    7.1459 H       1  UNL1        0.2105
     22 C          61.6053   86.4596   11.5597 C.3     1  UNL1        0.0459
     23 C          62.5285   85.2946   11.3590 C.ar    1  UNL1       -0.0205
     24 C          63.0719   84.5550   12.5455 C.ar    1  UNL1       -0.0042
     25 C          63.9951   83.3900   12.3447 C.ar    1  UNL1       -0.0003
     26 C          64.3750   82.9644   10.9575 C.ar    1  UNL1       -0.0000
     27 C          63.8316   83.7040    9.7709 C.ar    1  UNL1       -0.0003
     28 C          62.9084   84.8690    9.9716 C.ar    1  UNL1       -0.0042
     29 C          62.5155   88.8676   11.2089 C.3     1  UNL1        0.0216
     30 C          63.3713   88.7386   12.4341 C.3     1  UNL1        0.0217
     31 C          63.7252   89.9575   13.2335 C.3     1  UNL1        0.0792
     32 N          64.0574   91.2424   12.5346 N.am    1  UNL1       -0.2720
     33 C          65.3503   91.9438   12.8290 C.2     1  UNL1        0.4019
     34 O          66.3108   91.3603   13.8223 O.2     1  UNL1       -0.2264
     35 H          63.4270   91.6254   11.8826 H       1  UNL1        0.1527
     36 O          65.6825   93.2288   12.1300 O.3     1  UNL1       -0.4291
     37 C          66.3587   93.2013   10.7914 C.3     1  UNL1        0.2447
     38 C          66.7124   94.4863   10.1032 C.ar    1  UNL1        0.0714
     39 C          67.4444   94.6164    8.8004 C.ar    1  UNL1        0.1053
     40 N          67.5805   96.0774    8.4890 N.ar    1  UNL1       -0.2350
     41 C          66.9326   96.8503    9.5993 C.ar    1  UNL1        0.1343
     42 S          66.3961   95.8670   10.5969 S.2     1  UNL1       -0.0652
     43 C          63.7468   89.8915   14.7319 C.3     1  UNL1        0.0460
     44 C          63.6807   88.5629   15.4251 C.ar    1  UNL1       -0.0205
     45 C          64.3169   87.3576   14.7987 C.ar    1  UNL1       -0.0042
     46 C          64.2508   86.0291   15.4919 C.ar    1  UNL1       -0.0003
     47 C          63.5484   85.9058   16.8116 C.ar    1  UNL1       -0.0000
     48 C          62.9122   87.1111   17.4380 C.ar    1  UNL1       -0.0003
     49 C          62.9784   88.4396   16.7448 C.ar    1  UNL1       -0.0042
@<TRIPOS>BOND
     1     7     8    1
     2     8    13    1
     3    13    14    1
     4    14    15   ar
     5    15    16   ar
     6    16    17   ar
     7    17    18   ar
     8     8     9   am
     9     9    10    2
    10     9    11   am
    11    11     6    1
    12     6    19    1
    13    19    20    1
    14     6     2    1
    15     2     3    2
    16     2     4   am
    17     4     1    1
    18     1    29    1
    19    29    30    1
    20    31    30    1
    21    31    43    1
    22    43    44    1
    23    44    45   ar
    24    45    46   ar
    25    46    47   ar
    26    47    48   ar
    27    48    49   ar
    28    31    32    1
    29    32    33   am
    30    33    34    2
    31    33    36    1
    32    36    37    1
    33    37    38    1
    34    38    39   ar
    35    39    40   ar
    36    40    41   ar
    37    41    42   ar
    38     1    22    1
    39    22    23    1
    40    23    24   ar
    41    24    25   ar
    42    25    26   ar
    43    26    27   ar
    44    27    28   ar
    45    18    14   ar
    46    49    44   ar
    47    42    38   ar
    48    28    23   ar
    49    11    12    1
    50    20    21    1
    51     4     5    1
    52    32    35    1
@<TRIPOS>MOLECULE
*****
 49 52 0 0 0
SMALL
GASTEIGER

@<TRIPOS>ATOM
      1 C          60.8737   88.9803    9.3119 C.3     1  UNL1        0.0760
      2 C          59.5794   89.2532    7.0757 C.2     1  UNL1        0.2429
      3 O          59.4666   87.7621    6.9589 O.2     1  UNL1       -0.2732
      4 N          60.2830   89.8624    8.2522 N.am    1  UNL1       -0.3042
      5 H          60.3570   90.8411    8.3288 H       1  UNL1        0.1494
      6 CA         58.9887   90.1353    6.0160 C.3     1  UNL1        0.1793
      7 C          60.0808   94.1030    2.8435 C.3     1  UNL1        0.1168
      8 N          60.4230   92.7530    3.4005 N.am    1  UNL1       -0.2578
      9 C          59.5348   92.1192    4.4297 C.2     1  UNL1        0.3046
     10 O          58.3042   92.8354    4.9019 O.2     1  UNL1       -0.2526
     11 N          59.8770   90.7692    4.9868 N.am    1  UNL1       -0.2805
     12 H          60.6846   90.2991    4.6769 H       1  UNL1        0.1514
     13 C          61.6535   92.0368    2.9284 C.3     1  UNL1        0.1297
     14 C          62.4844   92.6211    1.8246 C.ar    1  UNL1        0.0479
     15 C          62.0433   92.8334    0.4067 C.ar    1  UNL1        0.1033
     16 N          63.1885   93.4392   -0.3492 N.ar    1  UNL1       -0.2350
     17 C          64.3374   93.6014    0.6015 C.ar    1  UNL1        0.1343
     18 S          63.9022   93.0958    1.9450 S.2     1  UNL1       -0.0671
     19 C          57.5097   90.3836    5.9855 C.3     1  UNL1        0.1661
     20 O          56.8105   90.5889    4.6744 O.3     1  UNL1       -0.3798
     21 H          57.1218   91.4125    4.2674 H       1  UNL1        0.2105
     22 C          60.3950   87.5668    9.4637 C.3     1  UNL1        0.0459
     23 C          61.3845   86.4574    9.6644 C.ar    1  UNL1       -0.0205
     24 C          62.2276   85.9875    8.5163 C.ar    1  UNL1       -0.0042
     25 C          63.2170   84.8781    8.7170 C.ar    1  UNL1       -0.0003
     26 C          63.3633   84.2386   10.0659 C.ar    1  UNL1       -0.0000
     27 C          62.5201   84.7084   11.2142 C.ar    1  UNL1       -0.0003
     28 C          61.5307   85.8178   11.0134 C.ar    1  UNL1       -0.0042
     29 C          61.9431   89.5116   10.2196 C.3     1  UNL1        0.0216
     30 C          61.7615   89.4522   11.7074 C.3     1  UNL1        0.0217
     31 C          62.9524   89.5597   12.6132 C.3     1  UNL1        0.0792
     32 N          63.6989   88.3240   13.0203 N.am    1  UNL1       -0.2720
     33 C          64.0188   88.0831   14.4659 C.2     1  UNL1        0.4019
     34 O          63.5921   89.0778   15.5043 O.2     1  UNL1       -0.2264
     35 H          63.9790   87.6711   12.3387 H       1  UNL1        0.1527
     36 O          64.7654   86.8474   14.8730 O.3     1  UNL1       -0.4291
     37 C          64.0654   85.7682   15.6445 C.3     1  UNL1        0.2447
     38 C          63.7415   84.4621   14.9817 C.ar    1  UNL1        0.0714
     39 C          64.6262   83.7133   14.0295 C.ar    1  UNL1        0.1053
     40 N          63.9077   82.4639   13.6141 N.ar    1  UNL1       -0.2350
     41 C          62.5788   82.4404   14.3096 C.ar    1  UNL1        0.1343
     42 S          62.4762   83.6754   15.1548 S.2     1  UNL1       -0.0652
     43 C          63.3966   90.9028   13.1119 C.3     1  UNL1        0.0460
     44 C          64.6284   91.5437   12.5444 C.ar    1  UNL1       -0.0205
     45 C          65.8399   91.7351   13.4079 C.ar    1  UNL1       -0.0042
     46 C          67.0716   92.3759   12.8404 C.ar    1  UNL1       -0.0003
     47 C          67.0919   92.8254   11.4095 C.ar    1  UNL1       -0.0000
     48 C          65.8804   92.6340   10.5460 C.ar    1  UNL1       -0.0003
     49 C          64.6487   91.9932   11.1135 C.ar    1  UNL1       -0.0042
@<TRIPOS>BOND
     1     7     8    1
     2     8    13    1
     3    13    14    1
     4    14    15   ar
     5    15    16   ar
     6    16    17   ar
     7    17    18   ar
     8     8     9   am
     9     9    10    2
    10     9    11   am
    11    11     6    1
    12     6    19    1
    13    19    20    1
    14     6     2    1
    15     2     3    2
    16     2     4   am
    17     4     1    1
    18     1    29    1
    19    29    30    1
    20    31    30    1
    21    31    43    1
    22    43    44    1
    23    44    45   ar
    24    45    46   ar
    25    46    47   ar
    26    47    48   ar
    27    48    49   ar
    28    31    32    1
    29    32    33   am
    30    33    34    2
    31    33    36    1
    32    36    37    1
    33    37    38    1
    34    38    39   ar
    35    39    40   ar
    36    40    41   ar
    37    41    42   ar
    38     1    22    1
    39    22    23    1
    40    23    24   ar
    41    24    25   ar
    42    25    26   ar
    43    26    27   ar
    44    27    28   ar
    45    18    14   ar
    46    49    44   ar
    47    42    38   ar
    48    28    23   ar
    49    11    12    1
    50    20    21    1
    51     4     5    1
    52    32    35    1
@<TRIPOS>MOLECULE
*****
 49 52 0 0 0
SMALL
GASTEIGER

@<TRIPOS>ATOM
      1 C          64.0475   90.3318   15.0579 C.3     1  UNL1        0.0760
      2 C          62.9195   88.3357   16.2800 C.2     1  UNL1        0.2429
      3 O          61.6892   89.1652   16.4992 O.2     1  UNL1       -0.2732
      4 N          64.0987   88.9190   15.5593 N.am    1  UNL1       -0.3042
      5 H          64.9063   88.3746   15.4154 H       1  UNL1        0.1494
      6 CA         62.9707   86.9230   16.7814 C.3     1  UNL1        0.1793
      7 C          65.0089   83.8227   13.1435 C.3     1  UNL1        0.1168
      8 N          63.8476   84.2302   14.0011 N.am    1  UNL1       -0.2578
      9 C          63.9898   85.3728   14.9624 C.2     1  UNL1        0.3046
     10 O          65.2932   86.1079   15.0663 O.2     1  UNL1       -0.2526
     11 N          62.8285   85.7803   15.8200 N.am    1  UNL1       -0.2805
     12 H          61.9731   85.2979   15.7518 H       1  UNL1        0.1514
     13 C          62.5442   83.4952   13.8973 C.3     1  UNL1        0.1297
     14 C          62.5137   82.0944   13.3615 C.ar    1  UNL1        0.0479
     15 C          62.9410   81.6659   11.9890 C.ar    1  UNL1        0.1033
     16 N          62.7419   80.1829   11.8834 N.ar    1  UNL1       -0.2350
     17 C          62.1915   79.6948   13.1907 C.ar    1  UNL1        0.1343
     18 S          62.0505   80.8762   14.1042 S.2     1  UNL1       -0.0671
     19 C          63.1641   86.6528   18.2441 C.3     1  UNL1        0.1661
     20 O          62.3806   87.4296   19.2603 O.3     1  UNL1       -0.3798
     21 H          62.6473   88.3617   19.2307 H       1  UNL1        0.2105
     22 C          64.7198   91.4271   15.8316 C.3     1  UNL1        0.0459
     23 C          66.1023   91.8712   15.4557 C.ar    1  UNL1       -0.0205
     24 C          66.7229   91.3905   14.1775 C.ar    1  UNL1       -0.0042
     25 C          68.1055   91.8346   13.8016 C.ar    1  UNL1       -0.0003
     26 C          68.8674   92.7594   14.7038 C.ar    1  UNL1       -0.0000
     27 C          68.2469   93.2402   15.9820 C.ar    1  UNL1       -0.0003
     28 C          66.8643   92.7961   16.3580 C.ar    1  UNL1       -0.0042
     29 C          63.3241   90.6494   13.7829 C.3     1  UNL1        0.0216
     30 C          63.9218   90.2580   12.4640 C.3     1  UNL1        0.0217
     31 C          63.7214   91.1313   11.2610 C.3     1  UNL1        0.0792
     32 N          63.0360   90.5852   10.0436 N.am    1  UNL1       -0.2720
     33 C          61.6048   90.1432   10.1235 C.2     1  UNL1        0.4019
     34 O          60.8590   90.2473   11.4207 O.2     1  UNL1       -0.2264
     35 H          63.5255   90.5169    9.1921 H       1  UNL1        0.1527
     36 O          60.9195   89.5972    8.9060 O.3     1  UNL1       -0.4291
     37 C          60.3610   88.2051    8.9208 C.3     1  UNL1        0.2447
     38 C          61.1825   87.0731    9.4627 C.ar    1  UNL1        0.0714
     39 C          62.1658   86.2472    8.6874 C.ar    1  UNL1        0.1053
     40 N          62.7560   85.2319    9.6206 N.ar    1  UNL1       -0.2350
     41 C          62.1375   85.4303   10.9726 C.ar    1  UNL1        0.1343
     42 S          61.1651   86.5682   10.8750 S.2     1  UNL1       -0.0652
     43 C          64.2063   92.5507   11.2754 C.3     1  UNL1        0.0460
     44 C          65.5314   92.8968   10.6635 C.ar    1  UNL1       -0.0205
     45 C          66.6007   91.8511   10.5488 C.ar    1  UNL1       -0.0042
     46 C          67.9257   92.1972    9.9369 C.ar    1  UNL1       -0.0003
     47 C          68.1814   93.5891    9.4396 C.ar    1  UNL1       -0.0000
     48 C          67.1122   94.6348    9.5542 C.ar    1  UNL1       -0.0003
     49 C          65.7872   94.2886   10.1662 C.ar    1  UNL1       -0.0042
@<TRIPOS>BOND
     1     7     8    1
     2     8    13    1
     3    13    14    1
     4    14    15   ar
     5    15    16   ar
     6    16    17   ar
     7    17    18   ar
     8     8     9   am
     9     9    10    2
    10     9    11   am
    11    11     6    1
    12     6    19    1
    13    19    20    1
    14     6     2    1
    15     2     3    2
    16     2     4   am
    17     4     1    1
    18     1    29    1
    19    29    30    1
    20    31    30    1
    21    31    43    1
    22    43    44    1
    23    44    45   ar
    24    45    46   ar
    25    46    47   ar
    26    47    48   ar
    27    48    49   ar
    28    31    32    1
    29    32    33   am
    30    33    34    2
    31    33    36    1
    32    36    37    1
    33    37    38    1
    34    38    39   ar
    35    39    40   ar
    36    40    41   ar
    37    41    42   ar
    38     1    22    1
    39    22    23    1
    40    23    24   ar
    41    24    25   ar
    42    25    26   ar
    43    26    27   ar
    44    27    28   ar
    45    18    14   ar
    46    49    44   ar
    47    42    38   ar
    48    28    23   ar
    49    11    12    1
    50    20    21    1
    51     4     5    1
    52    32    35    1
@<TRIPOS>MOLECULE
*****
 49 52 0 0 0
SMALL
GASTEIGER

@<TRIPOS>ATOM
      1 C          63.5890   90.3750   14.9273 C.3     1  UNL1        0.0760
      2 C          64.0083   87.8415   15.3223 C.2     1  UNL1        0.2429
      3 O          65.4001   87.9877   14.7826 O.2     1  UNL1       -0.2732
      4 N          63.1027   89.0352   15.3947 N.am    1  UNL1       -0.3042
      5 H          62.1891   88.9393   15.7489 H       1  UNL1        0.1494
      6 CA         63.5219   86.5018   15.7897 C.3     1  UNL1        0.1793
      7 C          63.4335   84.3160   11.0764 C.3     1  UNL1        0.1168
      8 N          63.6453   84.2028   12.5571 N.am    1  UNL1       -0.2578
      9 C          63.4777   85.4088   13.4331 C.2     1  UNL1        0.3046
     10 O          63.0983   86.7281   12.8284 O.2     1  UNL1       -0.2526
     11 N          63.6895   85.2956   14.9137 N.am    1  UNL1       -0.2805
     12 H          63.9385   84.4298   15.3106 H       1  UNL1        0.1514
     13 C          64.0247   82.8836   13.1618 C.3     1  UNL1        0.1297
     14 C          62.9670   81.8612   13.4555 C.ar    1  UNL1        0.0479
     15 C          61.7127   82.0920   14.2450 C.ar    1  UNL1        0.1033
     16 N          60.9485   80.8020   14.2886 N.ar    1  UNL1       -0.2350
     17 C          61.7305   79.7739   13.5260 C.ar    1  UNL1        0.1343
     18 S          62.9780   80.4286   13.0111 S.2     1  UNL1       -0.0671
     19 C          62.8679   86.3681   17.1330 C.3     1  UNL1        0.1661
     20 O          61.3732   86.2949   17.2355 O.3     1  UNL1       -0.3798
     21 H          60.9879   87.1383   16.9506 H       1  UNL1        0.2105
     22 C          64.3345   91.2729   15.8698 C.3     1  UNL1        0.0459
     23 C          65.6965   91.7818   15.5013 C.ar    1  UNL1       -0.0205
     24 C          66.3534   91.3176   14.2352 C.ar    1  UNL1       -0.0042
     25 C          67.7155   91.8265   13.8667 C.ar    1  UNL1       -0.0003
     26 C          68.4206   92.7997   14.7642 C.ar    1  UNL1       -0.0000
     27 C          67.7637   93.2640   16.0304 C.ar    1  UNL1       -0.0003
     28 C          66.4017   92.7551   16.3989 C.ar    1  UNL1       -0.0042
     29 C          63.3300   90.8169   13.5175 C.3     1  UNL1        0.0216
     30 C          62.4980   89.9650   12.6054 C.3     1  UNL1        0.0217
     31 C          62.4980   90.2259   11.1282 C.3     1  UNL1        0.0792
     32 N          63.7836   90.5397   10.4221 N.am    1  UNL1       -0.2720
     33 C          64.5667   91.7627   10.7981 C.2     1  UNL1        0.4019
     34 O          64.0641   92.6717   11.8802 O.2     1  UNL1       -0.2264
     35 H          64.1135   89.9431    9.7119 H       1  UNL1        0.1527
     36 O          65.8523   92.0765   10.0919 O.3     1  UNL1       -0.4291
     37 C          66.8112   93.0662   10.6843 C.3     1  UNL1        0.2447
     38 C          66.8278   94.4824   10.1903 C.ar    1  UNL1        0.0714
     39 C          66.0388   95.6241   10.7595 C.ar    1  UNL1        0.1053
     40 N          66.3597   96.8529    9.9613 N.ar    1  UNL1       -0.2350
     41 C          67.3471   96.4707    8.8988 C.ar    1  UNL1        0.1343
     42 S          67.6364   95.0056    9.0403 S.2     1  UNL1       -0.0652
     43 C          61.2124   90.1730   10.3572 C.3     1  UNL1        0.0460
     44 C          60.8595   88.9454    9.5708 C.ar    1  UNL1       -0.0205
     45 C          59.8330   89.0230    8.4798 C.ar    1  UNL1       -0.0042
     46 C          59.4802   87.7954    7.6934 C.ar    1  UNL1       -0.0003
     47 C          60.1537   86.4902    7.9979 C.ar    1  UNL1       -0.0000
     48 C          61.1802   86.4126    9.0889 C.ar    1  UNL1       -0.0003
     49 C          61.5331   87.6402    9.8753 C.ar    1  UNL1       -0.0042
@<TRIPOS>BOND
     1     7     8    1
     2     8    13    1
     3    13    14    1
     4    14    15   ar
     5    15    16   ar
     6    16    17   ar
     7    17    18   ar
     8     8     9   am
     9     9    10    2
    10     9    11   am
    11    11     6    1
    12     6    19    1
    13    19    20    1
    14     6     2    1
    15     2     3    2
    16     2     4   am
    17     4     1    1
    18     1    29    1
    19    29    30    1
    20    31    30    1
    21    31    43    1
    22    43    44    1
    23    44    45   ar
    24    45    46   ar
    25    46    47   ar
    26    47    48   ar
    27    48    49   ar
    28    31    32    1
    29    32    33   am
    30    33    34    2
    31    33    36    1
    32    36    37    1
    33    37    38    1
    34    38    39   ar
    35    39    40   ar
    36    40    41   ar
    37    41    42   ar
    38     1    22    1
    39    22    23    1
    40    23    24   ar
    41    24    25   ar
    42    25    26   ar
    43    26    27   ar
    44    27    28   ar
    45    18    14   ar
    46    49    44   ar
    47    42    38   ar
    48    28    23   ar
    49    11    12    1
    50    20    21    1
    51     4     5    1
    52    32    35    1
@<TRIPOS>MOLECULE
*****
 49 52 0 0 0
SMALL
GASTEIGER

@<TRIPOS>ATOM
      1 C          63.6850   90.5308   14.7203 C.3     1  UNL1        0.0760
      2 C          64.0637   88.0049   15.1963 C.2     1  UNL1        0.2429
      3 O          65.4273   88.0927   14.5774 O.2     1  UNL1       -0.2732
      4 N          63.1926   89.2239   15.2677 N.am    1  UNL1       -0.3042
      5 H          62.2976   89.1663   15.6739 H       1  UNL1        0.1494
      6 CA         63.5713   86.6981   15.7438 C.3     1  UNL1        0.1793
      7 C          63.3819   84.2354   11.1722 C.3     1  UNL1        0.1168
      8 N          63.6281   84.2110   12.6517 N.am    1  UNL1       -0.2578
      9 C          63.4766   85.4667   13.4580 C.2     1  UNL1        0.3046
     10 O          63.0788   86.7468   12.7849 O.2     1  UNL1       -0.2526
     11 N          63.7229   85.4423   14.9374 N.am    1  UNL1       -0.2805
     12 H          63.9840   84.6021   15.3792 H       1  UNL1        0.1514
     13 C          64.0259   82.9309   13.3248 C.3     1  UNL1        0.1297
     14 C          63.0223   81.8289   13.4935 C.ar    1  UNL1        0.0479
     15 C          63.1248   80.4473   12.9186 C.ar    1  UNL1        0.1033
     16 N          61.9059   79.6796   13.3366 N.ar    1  UNL1       -0.2350
     17 C          61.0499   80.5868   14.1700 C.ar    1  UNL1        0.1343
     18 S          61.7399   81.9151   14.2670 S.2     1  UNL1       -0.0671
     19 C          62.9274   86.6470   17.0975 C.3     1  UNL1        0.1661
     20 O          61.4993   86.2085   17.2327 O.3     1  UNL1       -0.3798
     21 H          60.9200   86.8563   16.8018 H       1  UNL1        0.2105
     22 C          64.3717   91.5115   15.6240 C.3     1  UNL1        0.0459
     23 C          65.8009   91.8904   15.3717 C.ar    1  UNL1       -0.0205
     24 C          66.4817   92.8858   16.2637 C.ar    1  UNL1       -0.0042
     25 C          67.9109   93.2646   16.0114 C.ar    1  UNL1       -0.0003
     26 C          68.6595   92.6481   14.8671 C.ar    1  UNL1       -0.0000
     27 C          67.9788   91.6526   13.9750 C.ar    1  UNL1       -0.0003
     28 C          66.5495   91.2738   14.2273 C.ar    1  UNL1       -0.0042
     29 C          63.4908   90.8569   13.2691 C.3     1  UNL1        0.0216
     30 C          64.2361   92.0028   12.6517 C.3     1  UNL1        0.0217
     31 C          64.4891   92.0235   11.1733 C.3     1  UNL1        0.0792
     32 N          63.3518   91.8285   10.2149 N.am    1  UNL1       -0.2720
     33 C          62.6707   90.4954   10.1205 C.2     1  UNL1        0.4019
     34 O          63.1270   89.3572   10.9843 O.2     1  UNL1       -0.2264
     35 H          63.0523   92.5756    9.6480 H       1  UNL1        0.1527
     36 O          61.5333   90.3004    9.1621 O.3     1  UNL1       -0.4291
     37 C          60.3879   89.4045    9.5298 C.3     1  UNL1        0.2447
     38 C          60.1862   88.1082    8.8025 C.ar    1  UNL1        0.0714
     39 C          59.0983   87.8123    7.8131 C.ar    1  UNL1        0.1053
     40 N          59.2768   86.4015    7.3360 N.ar    1  UNL1       -0.2350
     41 C          60.4750   85.8254    8.0305 C.ar    1  UNL1        0.1343
     42 S          61.0370   86.8802    8.9368 S.2     1  UNL1       -0.0652
     43 C          65.8795   92.2390   10.6533 C.3     1  UNL1        0.0460
     44 C          66.3458   93.6228   10.3102 C.ar    1  UNL1       -0.0205
     45 C          65.9577   94.7821   11.1794 C.ar    1  UNL1       -0.0042
     46 C          66.4241   96.1658   10.8362 C.ar    1  UNL1       -0.0003
     47 C          67.2784   96.3903    9.6240 C.ar    1  UNL1       -0.0000
     48 C          67.6665   95.2310    8.7548 C.ar    1  UNL1       -0.0003
     49 C          67.2002   93.8473    9.0979 C.ar    1  UNL1       -0.0042
@<TRIPOS>BOND
     1     7     8    1
     2     8    13    1
     3    13    14    1
     4    14    15   ar
     5    15    16   ar
     6    16    17   ar
     7    17    18   ar
     8     8     9   am
     9     9    10    2
    10     9    11   am
    11    11     6    1
    12     6    19    1
    13    19    20    1
    14     6     2    1
    15     2     3    2
    16     2     4   am
    17     4     1    1
    18     1    29    1
    19    29    30    1
    20    31    30    1
    21    31    43    1
    22    43    44    1
    23    44    45   ar
    24    45    46   ar
    25    46    47   ar
    26    47    48   ar
    27    48    49   ar
    28    31    32    1
    29    32    33   am
    30    33    34    2
    31    33    36    1
    32    36    37    1
    33    37    38    1
    34    38    39   ar
    35    39    40   ar
    36    40    41   ar
    37    41    42   ar
    38     1    22    1
    39    22    23    1
    40    23    24   ar
    41    24    25   ar
    42    25    26   ar
    43    26    27   ar
    44    27    28   ar
    45    18    14   ar
    46    49    44   ar
    47    42    38   ar
    48    28    23   ar
    49    11    12    1
    50    20    21    1
    51     4     5    1
    52    32    35    1
@<TRIPOS>MOLECULE
*****
 49 52 0 0 0
SMALL
GASTEIGER

@<TRIPOS>ATOM
      1 C          61.8916   88.2548   11.4240 C.3     1  UNL1        0.0760
      2 C          62.6578   85.9142   10.5966 C.2     1  UNL1        0.2429
      3 O          62.5979   86.3962    9.1775 O.2     1  UNL1       -0.2732
      4 N          62.3047   86.8435   11.7199 N.am    1  UNL1       -0.3042
      5 H          62.3440   86.5272   12.6514 H       1  UNL1        0.1494
      6 CA         63.0709   84.5029   10.8926 C.3     1  UNL1        0.1793
      7 C          64.5168   83.3848   15.7567 C.3     1  UNL1        0.1168
      8 N          63.4909   83.3388   14.6633 N.am    1  UNL1       -0.2578
      9 C          63.7938   83.9438   13.3247 C.2     1  UNL1        0.3046
     10 O          65.1227   84.5949   13.0793 O.2     1  UNL1       -0.2526
     11 N          62.7679   83.8978   12.2313 N.am    1  UNL1       -0.2805
     12 H          61.8957   83.4705   12.3924 H       1  UNL1        0.1514
     13 C          62.1621   82.6877   14.9087 C.3     1  UNL1        0.1297
     14 C          61.8613   81.3469   14.3072 C.ar    1  UNL1        0.0479
     15 C          60.5152   80.6876   14.2510 C.ar    1  UNL1        0.1033
     16 N          60.6759   79.3632   13.5654 N.ar    1  UNL1       -0.2350
     17 C          62.1214   79.2039   13.1978 C.ar    1  UNL1        0.1343
     18 S          62.8540   80.4299   13.6563 S.2     1  UNL1       -0.0671
     19 C          63.7869   83.6967    9.8499 C.3     1  UNL1        0.1661
     20 O          64.1966   82.2841   10.1445 O.3     1  UNL1       -0.3798
     21 H          64.8703   82.2817   10.8424 H       1  UNL1        0.2105
     22 C          60.4720   88.5570   11.0452 C.3     1  UNL1        0.0459
     23 C          60.0186   88.3725    9.6273 C.ar    1  UNL1       -0.0205
     24 C          60.1356   89.5038    8.6493 C.ar    1  UNL1       -0.0042
     25 C          59.6822   89.3193    7.2314 C.ar    1  UNL1       -0.0003
     26 C          59.1118   88.0036    6.7915 C.ar    1  UNL1       -0.0000
     27 C          58.9948   86.8723    7.7695 C.ar    1  UNL1       -0.0003
     28 C          59.4482   87.0567    9.1874 C.ar    1  UNL1       -0.0042
     29 C          62.8981   89.3639   11.5068 C.3     1  UNL1        0.0216
     30 C          62.6682   90.5172   12.4379 C.3     1  UNL1        0.0217
     31 C          63.8234   91.1284   13.1742 C.3     1  UNL1        0.0792
     32 N          64.8304   91.9577   12.4339 N.am    1  UNL1       -0.2720
     33 C          65.7796   92.8381   13.1916 C.2     1  UNL1        0.4019
     34 O          65.7217   92.8892   14.6896 O.2     1  UNL1       -0.2264
     35 H          64.8684   91.9242   11.4507 H       1  UNL1        0.1527
     36 O          66.7866   93.6674   12.4513 O.3     1  UNL1       -0.4291
     37 C          66.3542   94.9172   11.7434 C.3     1  UNL1        0.2447
     38 C          66.6914   95.1137   10.2951 C.ar    1  UNL1        0.0714
     39 C          67.2793   94.0819    9.3788 C.ar    1  UNL1        0.1053
     40 N          67.4511   94.7071    8.0261 N.ar    1  UNL1       -0.2350
     41 C          66.9693   96.1253    8.1064 C.ar    1  UNL1        0.1343
     42 S          66.4998   96.3766    9.5087 S.2     1  UNL1       -0.0652
     43 C          63.9714   90.9103   14.6508 C.3     1  UNL1        0.0460
     44 C          63.8113   89.5340   15.2255 C.ar    1  UNL1       -0.0205
     45 C          64.4033   88.3519   14.5170 C.ar    1  UNL1       -0.0042
     46 C          64.2432   86.9757   15.0917 C.ar    1  UNL1       -0.0003
     47 C          63.4910   86.7815   16.3748 C.ar    1  UNL1       -0.0000
     48 C          62.8989   87.9637   17.0833 C.ar    1  UNL1       -0.0003
     49 C          63.0591   89.3399   16.5087 C.ar    1  UNL1       -0.0042
@<TRIPOS>BOND
     1     7     8    1
     2     8    13    1
     3    13    14    1
     4    14    15   ar
     5    15    16   ar
     6    16    17   ar
     7    17    18   ar
     8     8     9   am
     9     9    10    2
    10     9    11   am
    11    11     6    1
    12     6    19    1
    13    19    20    1
    14     6     2    1
    15     2     3    2
    16     2     4   am
    17     4     1    1
    18     1    29    1
    19    29    30    1
    20    31    30    1
    21    31    43    1
    22    43    44    1
    23    44    45   ar
    24    45    46   ar
    25    46    47   ar
    26    47    48   ar
    27    48    49   ar
    28    31    32    1
    29    32    33   am
    30    33    34    2
    31    33    36    1
    32    36    37    1
    33    37    38    1
    34    38    39   ar
    35    39    40   ar
    36    40    41   ar
    37    41    42   ar
    38     1    22    1
    39    22    23    1
    40    23    24   ar
    41    24    25   ar
    42    25    26   ar
    43    26    27   ar
    44    27    28   ar
    45    18    14   ar
    46    49    44   ar
    47    42    38   ar
    48    28    23   ar
    49    11    12    1
    50    20    21    1
    51     4     5    1
    52    32    35    1
@<TRIPOS>MOLECULE
*****
 49 52 0 0 0
SMALL
GASTEIGER

@<TRIPOS>ATOM
      1 C          62.0573   88.4957   10.9592 C.3     1  UNL1        0.0760
      2 C          62.7137   86.0144   10.5563 C.2     1  UNL1        0.2429
      3 O          62.5887   86.2216    9.0760 O.2     1  UNL1       -0.2732
      4 N          62.4480   87.1515   11.4979 N.am    1  UNL1       -0.3042
      5 H          62.5301   87.0154   12.4695 H       1  UNL1        0.1494
      6 CA         63.1045   84.6701   11.0951 C.3     1  UNL1        0.1793
      7 C          63.4962   85.4575   16.2163 C.3     1  UNL1        0.1168
      8 N          62.9353   84.6838   15.0601 N.am    1  UNL1       -0.2578
      9 C          63.3003   85.0638   13.6557 C.2     1  UNL1        0.3046
     10 O          64.2262   86.2176   13.4075 O.2     1  UNL1       -0.2526
     11 N          62.7395   84.2901   12.4996 N.am    1  UNL1       -0.2805
     12 H          62.1318   83.5328   12.6625 H       1  UNL1        0.1514
     13 C          62.0095   83.5300   15.3083 C.3     1  UNL1        0.1297
     14 C          62.2672   82.2067   14.6507 C.ar    1  UNL1        0.0479
     15 C          63.6129   81.5910   14.4058 C.ar    1  UNL1        0.1033
     16 N          63.4018   80.2705   13.7262 N.ar    1  UNL1       -0.2350
     17 C          61.9255   80.0701   13.5511 C.ar    1  UNL1        0.1343
     18 S          61.2243   81.2667   14.1224 S.2     1  UNL1       -0.0671
     19 C          63.8602   83.7060   10.2295 C.3     1  UNL1        0.1661
     20 O          64.9842   82.8996   10.8094 O.3     1  UNL1       -0.3798
     21 H          65.7091   83.4917   11.0641 H       1  UNL1        0.2105
     22 C          60.6144   88.8056   10.6906 C.3     1  UNL1        0.0459
     23 C          60.0165   88.4917    9.3512 C.ar    1  UNL1       -0.0205
     24 C          59.4532   87.1277    9.0823 C.ar    1  UNL1       -0.0042
     25 C          58.8554   86.8138    7.7429 C.ar    1  UNL1       -0.0003
     26 C          58.8209   87.8638    6.6723 C.ar    1  UNL1       -0.0000
     27 C          59.3843   89.2278    6.9411 C.ar    1  UNL1       -0.0003
     28 C          59.9821   89.5418    8.2806 C.ar    1  UNL1       -0.0042
     29 C          63.1094   89.5301   10.6889 C.3     1  UNL1        0.0216
     30 C          63.0289   90.8728   11.3526 C.3     1  UNL1        0.0217
     31 C          64.2244   91.4285   12.0683 C.3     1  UNL1        0.0792
     32 N          64.0893   91.9320   13.4749 N.am    1  UNL1       -0.2720
     33 C          64.2388   90.9845   14.6282 C.2     1  UNL1        0.4019
     34 O          64.5234   89.5337   14.3749 O.2     1  UNL1       -0.2264
     35 H          63.9025   92.8842   13.6411 H       1  UNL1        0.1527
     36 O          64.1037   91.4879   16.0347 O.3     1  UNL1       -0.4291
     37 C          65.1029   92.4642   16.5811 C.3     1  UNL1        0.2447
     38 C          66.3975   92.6954   15.8596 C.ar    1  UNL1        0.0714
     39 C          66.5718   93.4721   14.5883 C.ar    1  UNL1        0.1053
     40 N          68.0271   93.4472   14.2257 N.ar    1  UNL1       -0.2350
     41 C          68.7523   92.6551   15.2730 C.ar    1  UNL1        0.1343
     42 S          67.7451   92.1905   16.2828 S.2     1  UNL1       -0.0652
     43 C          65.5548   91.4808   11.3776 C.3     1  UNL1        0.0460
     44 C          66.0503   92.7740   10.8011 C.ar    1  UNL1       -0.0205
     45 C          65.3250   94.0534   11.0961 C.ar    1  UNL1       -0.0042
     46 C          65.8205   95.3464   10.5196 C.ar    1  UNL1       -0.0003
     47 C          67.0413   95.3601    9.6481 C.ar    1  UNL1       -0.0000
     48 C          67.7666   94.0807    9.3531 C.ar    1  UNL1       -0.0003
     49 C          67.2711   92.7877    9.9296 C.ar    1  UNL1       -0.0042
@<TRIPOS>BOND
     1     7     8    1
     2     8    13    1
     3    13    14    1
     4    14    15   ar
     5    15    16   ar
     6    16    17   ar
     7    17    18   ar
     8     8     9   am
     9     9    10    2
    10     9    11   am
    11    11     6    1
    12     6    19    1
    13    19    20    1
    14     6     2    1
    15     2     3    2
    16     2     4   am
    17     4     1    1
    18     1    29    1
    19    29    30    1
    20    31    30    1
    21    31    43    1
    22    43    44    1
    23    44    45   ar
    24    45    46   ar
    25    46    47   ar
    26    47    48   ar
    27    48    49   ar
    28    31    32    1
    29    32    33   am
    30    33    34    2
    31    33    36    1
    32    36    37    1
    33    37    38    1
    34    38    39   ar
    35    39    40   ar
    36    40    41   ar
    37    41    42   ar
    38     1    22    1
    39    22    23    1
    40    23    24   ar
    41    24    25   ar
    42    25    26   ar
    43    26    27   ar
    44    27    28   ar
    45    18    14   ar
    46    49    44   ar
    47    42    38   ar
    48    28    23   ar
    49    11    12    1
    50    20    21    1
    51     4     5    1
    52    32    35    1
@<TRIPOS>MOLECULE
*****
 49 52 0 0 0
SMALL
GASTEIGER

@<TRIPOS>ATOM
      1 C          61.8915   89.7089   10.6793 C.3     1  UNL1        0.0760
      2 C          61.9552   87.1754   11.2512 C.2     1  UNL1        0.2429
      3 O          60.7315   87.3369   12.1035 O.2     1  UNL1       -0.2732
      4 N          62.5352   88.3614   10.5391 N.am    1  UNL1       -0.3042
      5 H          63.3384   88.2553    9.9797 H       1  UNL1        0.1494
      6 CA         62.5989   85.8278   11.1110 C.3     1  UNL1        0.1793
      7 C          63.6288   81.4906   13.7809 C.3     1  UNL1        0.1168
      8 N          63.7065   82.9826   13.6463 N.am    1  UNL1       -0.2578
      9 C          63.1139   83.6592   12.4460 C.2     1  UNL1        0.3046
     10 O          62.4436   82.8439   11.3801 O.2     1  UNL1       -0.2526
     11 N          63.1916   85.1511   12.3114 N.am    1  UNL1       -0.2805
     12 H          63.6316   85.6862   13.0109 H       1  UNL1        0.1514
     13 C          64.3768   83.7978   14.7121 C.3     1  UNL1        0.1297
     14 C          63.5633   84.7106   15.5811 C.ar    1  UNL1        0.0479
     15 C          62.1177   84.5309   15.9385 C.ar    1  UNL1        0.1033
     16 N          61.7136   85.6725   16.8235 N.ar    1  UNL1       -0.2350
     17 C          62.9095   86.5579   17.0132 C.ar    1  UNL1        0.1343
     18 S          64.0527   85.9634   16.2453 S.2     1  UNL1       -0.0671
     19 C          62.6500   85.1569    9.7704 C.3     1  UNL1        0.1661
     20 O          62.9089   85.9677    8.5353 O.3     1  UNL1       -0.3798
     21 H          62.1668   86.5741    8.3851 H       1  UNL1        0.2105
     22 C          60.5212   89.9476   10.1177 C.3     1  UNL1        0.0459
     23 C          60.0187   89.1055    8.9826 C.ar    1  UNL1       -0.0205
     24 C          59.6998   87.6572    9.2072 C.ar    1  UNL1       -0.0042
     25 C          59.1973   86.8151    8.0720 C.ar    1  UNL1       -0.0003
     26 C          59.0139   87.4214    6.7124 C.ar    1  UNL1       -0.0000
     27 C          59.3328   88.8698    6.4878 C.ar    1  UNL1       -0.0003
     28 C          59.8352   89.7119    7.6229 C.ar    1  UNL1       -0.0042
     29 C          62.6180   90.8178   11.3811 C.3     1  UNL1        0.0216
     30 C          63.8690   91.3906   10.7839 C.3     1  UNL1        0.0217
     31 C          64.9058   92.0147   11.6704 C.3     1  UNL1        0.0792
     32 N          64.5728   92.3473   13.0946 N.am    1  UNL1       -0.2720
     33 C          64.5627   91.2663   14.1346 C.2     1  UNL1        0.4019
     34 O          64.8856   89.8528   13.7503 O.2     1  UNL1       -0.2264
     35 H          64.3609   93.2750   13.3469 H       1  UNL1        0.1527
     36 O          64.2298   91.5989   15.5589 O.3     1  UNL1       -0.4291
     37 C          65.2053   92.3715   16.3964 C.3     1  UNL1        0.2447
     38 C          66.5790   92.6639   15.8698 C.ar    1  UNL1        0.0714
     39 C          66.9136   93.6159   14.7599 C.ar    1  UNL1        0.1053
     40 N          68.4008   93.5961   14.5647 N.ar    1  UNL1       -0.2350
     41 C          68.9853   92.6319   15.5540 C.ar    1  UNL1        0.1343
     42 S          67.8594   92.0558   16.3605 S.2     1  UNL1       -0.0652
     43 C          66.2753   92.3061   11.1326 C.3     1  UNL1        0.0460
     44 C          66.5907   93.6645   10.5798 C.ar    1  UNL1       -0.0205
     45 C          67.3329   93.7925    9.2826 C.ar    1  UNL1       -0.0042
     46 C          67.6482   95.1508    8.7299 C.ar    1  UNL1       -0.0003
     47 C          67.2212   96.3810    9.4743 C.ar    1  UNL1       -0.0000
     48 C          66.4790   96.2530   10.7714 C.ar    1  UNL1       -0.0003
     49 C          66.1637   94.8947   11.3242 C.ar    1  UNL1       -0.0042
@<TRIPOS>BOND
     1     7     8    1
     2     8    13    1
     3    13    14    1
     4    14    15   ar
     5    15    16   ar
     6    16    17   ar
     7    17    18   ar
     8     8     9   am
     9     9    10    2
    10     9    11   am
    11    11     6    1
    12     6    19    1
    13    19    20    1
    14     6     2    1
    15     2     3    2
    16     2     4   am
    17     4     1    1
    18     1    29    1
    19    29    30    1
    20    31    30    1
    21    31    43    1
    22    43    44    1
    23    44    45   ar
    24    45    46   ar
    25    46    47   ar
    26    47    48   ar
    27    48    49   ar
    28    31    32    1
    29    32    33   am
    30    33    34    2
    31    33    36    1
    32    36    37    1
    33    37    38    1
    34    38    39   ar
    35    39    40   ar
    36    40    41   ar
    37    41    42   ar
    38     1    22    1
    39    22    23    1
    40    23    24   ar
    41    24    25   ar
    42    25    26   ar
    43    26    27   ar
    44    27    28   ar
    45    18    14   ar
    46    49    44   ar
    47    42    38   ar
    48    28    23   ar
    49    11    12    1
    50    20    21    1
    51     4     5    1
    52    32    35    1
@<TRIPOS>MOLECULE
*****
 49 52 0 0 0
SMALL
GASTEIGER

@<TRIPOS>ATOM
      1 C          62.7416   89.5280   11.0978 C.3     1  UNL1        0.0760
      2 C          62.9775   88.8934   13.6062 C.2     1  UNL1        0.2429
      3 O          62.1108   90.0585   13.9824 O.2     1  UNL1       -0.2732
      4 N          63.2929   88.6282   12.1638 N.am    1  UNL1       -0.3042
      5 H          63.8617   87.8636   11.9169 H       1  UNL1        0.1494
      6 CA         63.5288   87.9936   14.6722 C.3     1  UNL1        0.1793
      7 C          62.9290   82.9060   15.5422 C.3     1  UNL1        0.1168
      8 N          63.5746   84.0268   14.7825 N.am    1  UNL1       -0.2578
      9 C          63.2289   85.4498   15.1071 C.2     1  UNL1        0.3046
     10 O          62.2375   85.7521   16.1915 O.2     1  UNL1       -0.2526
     11 N          63.8745   86.5705   14.3475 N.am    1  UNL1       -0.2805
     12 H          64.5252   86.3721   13.6358 H       1  UNL1        0.1514
     13 C          64.5660   83.7245   13.6981 C.3     1  UNL1        0.1297
     14 C          64.1426   82.9386   12.4926 C.ar    1  UNL1        0.0479
     15 C          63.2898   81.7047   12.4994 C.ar    1  UNL1        0.1033
     16 N          63.1178   81.2522   11.0797 N.ar    1  UNL1       -0.2350
     17 C          63.8644   82.2066   10.1953 C.ar    1  UNL1        0.1343
     18 S          64.4977   83.2488   11.0686 S.2     1  UNL1       -0.0671
     19 C          63.7343   88.5168   16.0628 C.3     1  UNL1        0.1661
     20 O          63.1550   89.8426   16.4586 O.3     1  UNL1       -0.3798
     21 H          63.5885   90.5485   15.9539 H       1  UNL1        0.2105
     22 C          61.2869   89.4608   10.7380 C.3     1  UNL1        0.0459
     23 C          60.8082   88.4535    9.7348 C.ar    1  UNL1       -0.0205
     24 C          61.2745   87.0304    9.8198 C.ar    1  UNL1       -0.0042
     25 C          60.7959   86.0231    8.8167 C.ar    1  UNL1       -0.0003
     26 C          59.8509   86.4390    7.7285 C.ar    1  UNL1       -0.0000
     27 C          59.3846   87.8622    7.6435 C.ar    1  UNL1       -0.0003
     28 C          59.8632   88.8694    8.6467 C.ar    1  UNL1       -0.0042
     29 C          63.6449   90.4951   10.3916 C.3     1  UNL1        0.0216
     30 C          63.7140   91.9237   10.8435 C.3     1  UNL1        0.0217
     31 C          64.9243   92.4205   11.5774 C.3     1  UNL1        0.0792
     32 N          64.8474   92.6978   13.0495 N.am    1  UNL1       -0.2720
     33 C          65.1286   91.6021   14.0347 C.2     1  UNL1        0.4019
     34 O          65.4867   90.2293   13.5478 O.2     1  UNL1       -0.2264
     35 H          64.6124   93.5988   13.3691 H       1  UNL1        0.1527
     36 O          65.0517   91.8794   15.5069 O.3     1  UNL1       -0.4291
     37 C          66.0446   92.8022   16.1491 C.3     1  UNL1        0.2447
     38 C          67.4504   92.8697   15.6304 C.ar    1  UNL1        0.0714
     39 C          68.0178   92.0475   14.5115 C.ar    1  UNL1        0.1053
     40 N          69.4538   92.4410   14.3290 N.ar    1  UNL1       -0.2350
     41 C          69.7738   93.5064   15.3352 C.ar    1  UNL1        0.1343
     42 S          68.5357   93.7714   16.1394 S.2     1  UNL1       -0.0652
     43 C          66.2114   92.6400   10.8391 C.3     1  UNL1        0.0460
     44 C          66.5497   94.0023   10.3099 C.ar    1  UNL1       -0.0205
     45 C          66.1496   95.2263   11.0792 C.ar    1  UNL1       -0.0042
     46 C          66.4878   96.5884   10.5500 C.ar    1  UNL1       -0.0003
     47 C          67.2262   96.7266    9.2517 C.ar    1  UNL1       -0.0000
     48 C          67.6263   95.5026    8.4824 C.ar    1  UNL1       -0.0003
     49 C          67.2880   94.1405    9.0116 C.ar    1  UNL1       -0.0042
@<TRIPOS>BOND
     1     7     8    1
     2     8    13    1
     3    13    14    1
     4    14    15   ar
     5    15    16   ar
     6    16    17   ar
     7    17    18   ar
     8     8     9   am
     9     9    10    2
    10     9    11   am
    11    11     6    1
    12     6    19    1
    13    19    20    1
    14     6     2    1
    15     2     3    2
    16     2     4   am
    17     4     1    1
    18     1    29    1
    19    29    30    1
    20    31    30    1
    21    31    43    1
    22    43    44    1
    23    44    45   ar
    24    45    46   ar
    25    46    47   ar
    26    47    48   ar
    27    48    49   ar
    28    31    32    1
    29    32    33   am
    30    33    34    2
    31    33    36    1
    32    36    37    1
    33    37    38    1
    34    38    39   ar
    35    39    40   ar
    36    40    41   ar
    37    41    42   ar
    38     1    22    1
    39    22    23    1
    40    23    24   ar
    41    24    25   ar
    42    25    26   ar
    43    26    27   ar
    44    27    28   ar
    45    18    14   ar
    46    49    44   ar
    47    42    38   ar
    48    28    23   ar
    49    11    12    1
    50    20    21    1
    51     4     5    1
    52    32    35    1
