@<TRIPOS>MOLECULE
*****
 27 30 0 0 0
SMALL
GASTEIGER

@<TRIPOS>ATOM
      1 C          63.8959   87.9422   14.9644 C.ar    1  UNL1        0.0366
      2 C          64.4417   88.9726   14.0209 C.ar    1  UNL1       -0.0012
      3 C          64.3692   90.4281   14.3763 C.ar    1  UNL1       -0.0223
      4 C          63.7510   90.8532   15.6751 C.ar    1  UNL1       -0.0012
      5 C          63.2052   89.8227   16.6186 C.ar    1  UNL1        0.0366
      6 C          63.2776   88.3672   16.2633 C.ar    1  UNL1        0.1385
      7 C          64.9151   91.4586   13.4327 C.3     1  UNL1        0.0224
      8 C          64.4110   91.5252   12.0215 C.3     1  UNL1        0.0057
      9 C          64.9568   92.5556   11.0780 C.3     1  UNL1        0.0163
     10 C          66.0067   93.5195   11.5456 C.3     1  UNL1        0.0575
     11 C          66.5108   93.4529   12.9568 C.3     1  UNL1        0.0163
     12 C          65.9649   92.4225   13.9003 C.3     1  UNL1        0.0057
     13 N          66.5525   94.5499   10.6020 N.3     1  UNL1       -0.2740
     14 C          66.4924   96.0369   10.7896 C.3     1  UNL1        0.0721
     15 C          67.1569   96.6802    9.6087 C.3     1  UNL1        0.0188
     16 C          67.6278   95.5908    8.6913 C.3     1  UNL1        0.0188
     17 C          67.2542   94.2742    9.3052 C.3     1  UNL1        0.0721
     18 O          62.7318   87.3368   17.2069 O.3     1  UNL1       -0.4754
     19 C          63.2651   85.9351   17.1769 C.3     1  UNL1        0.2068
     20 C          62.8709   85.0062   16.0670 C.3     1  UNL1        0.0646
     21 C          63.9235   84.2466   15.3153 C.3     1  UNL1        0.0759
     22 N          63.5355   83.3693   14.1621 N.3     1  UNL1       -0.2726
     23 C          64.2580   83.4883   12.8530 C.3     1  UNL1        0.0721
     24 C          63.8701   82.6110   11.6998 C.3     1  UNL1        0.0174
     25 C          62.7597   81.6148   11.8557 C.3     1  UNL1        0.0029
     26 C          62.0372   81.4958   13.1648 C.3     1  UNL1        0.0174
     27 C          62.4251   82.3730   14.3180 C.3     1  UNL1        0.0721
@<TRIPOS>BOND
     1     1     2   ar
     2     2     3   ar
     3     7     3    1
     4     7     8    1
     5     8     9    1
     6     9    10    1
     7    10    13    1
     8    13    14    1
     9    14    15    1
    10    15    16    1
    11    16    17    1
    12    10    11    1
    13    11    12    1
    14     3     4   ar
    15     4     5   ar
    16     5     6   ar
    17     6    18    1
    18    18    19    1
    19    19    20    1
    20    20    21    1
    21    21    22    1
    22    22    23    1
    23    23    24    1
    24    24    25    1
    25    25    26    1
    26    26    27    1
    27     6     1   ar
    28    27    22    1
    29    12     7    1
    30    17    13    1
@<TRIPOS>MOLECULE
*****
 27 30 0 0 0
SMALL
GASTEIGER

@<TRIPOS>ATOM
      1 C          63.5726   90.3355   12.4475 C.ar    1  UNL1        0.0366
      2 C          63.2872   88.8657   12.3566 C.ar    1  UNL1       -0.0012
      3 C          63.8063   87.9343   13.4116 C.ar    1  UNL1       -0.0223
      4 C          64.6107   88.4726   14.5575 C.ar    1  UNL1       -0.0012
      5 C          64.8961   89.9423   14.6484 C.ar    1  UNL1        0.0366
      6 C          64.3771   90.8738   13.5934 C.ar    1  UNL1        0.1385
      7 C          63.5208   86.4644   13.3206 C.3     1  UNL1        0.0224
      8 C          62.8293   85.9082   12.1113 C.3     1  UNL1        0.0057
      9 C          62.5439   84.4384   12.0204 C.3     1  UNL1        0.0163
     10 C          62.9499   83.5249   13.1387 C.3     1  UNL1        0.0575
     11 C          63.6414   84.0811   14.3480 C.3     1  UNL1        0.0163
     12 C          63.9269   85.5510   14.4389 C.3     1  UNL1        0.0057
     13 N          62.6645   82.0551   13.0477 N.3     1  UNL1       -0.2740
     14 C          63.1200   81.1346   11.9545 C.3     1  UNL1        0.0721
     15 C          62.6104   79.7584   12.2651 C.3     1  UNL1        0.0188
     16 C          61.8400   79.8284   13.5503 C.3     1  UNL1        0.0188
     17 C          61.8734   81.2479   14.0339 C.3     1  UNL1        0.0721
     18 O          64.6625   92.3436   13.6844 O.3     1  UNL1       -0.4754
     19 C          66.0287   92.8191   14.0811 C.3     1  UNL1        0.2068
     20 C          66.5755   94.0926   13.5074 C.3     1  UNL1        0.0646
     21 C          66.2231   94.4961   12.1064 C.3     1  UNL1        0.0759
     22 N          66.9806   93.9198   10.9469 N.3     1  UNL1       -0.2726
     23 C          67.3845   92.4753   10.9586 C.3     1  UNL1        0.0721
     24 C          68.1419   91.8989    9.7992 C.3     1  UNL1        0.0174
     25 C          68.4953   92.7671    8.6282 C.3     1  UNL1        0.0029
     26 C          68.0914   94.2116    8.6166 C.3     1  UNL1        0.0174
     27 C          67.3340   94.7880    9.7759 C.3     1  UNL1        0.0721
@<TRIPOS>BOND
     1     1     2   ar
     2     2     3   ar
     3     7     3    1
     4     7     8    1
     5     8     9    1
     6     9    10    1
     7    10    13    1
     8    13    14    1
     9    14    15    1
    10    15    16    1
    11    16    17    1
    12    10    11    1
    13    11    12    1
    14     3     4   ar
    15     4     5   ar
    16     5     6   ar
    17     6    18    1
    18    18    19    1
    19    19    20    1
    20    20    21    1
    21    21    22    1
    22    22    23    1
    23    23    24    1
    24    24    25    1
    25    25    26    1
    26    26    27    1
    27     6     1   ar
    28    27    22    1
    29    12     7    1
    30    17    13    1
@<TRIPOS>MOLECULE
*****
 27 30 0 0 0
SMALL
GASTEIGER

@<TRIPOS>ATOM
      1 C          63.6658   90.4005   12.3199 C.ar    1  UNL1        0.0366
      2 C          63.3505   88.9343   12.2951 C.ar    1  UNL1       -0.0012
      3 C          63.8027   88.0508   13.4198 C.ar    1  UNL1       -0.0223
      4 C          64.5701   88.6335   14.5693 C.ar    1  UNL1       -0.0012
      5 C          64.8854   90.0997   14.5941 C.ar    1  UNL1        0.0366
      6 C          64.4332   90.9833   13.4694 C.ar    1  UNL1        0.1385
      7 C          63.4874   86.5844   13.3949 C.3     1  UNL1        0.0224
      8 C          63.9685   85.6950   14.5028 C.3     1  UNL1        0.0057
      9 C          63.6532   84.2287   14.4780 C.3     1  UNL1        0.0163
     10 C          62.8568   83.6519   13.3452 C.3     1  UNL1        0.0575
     11 C          62.3756   84.5413   12.2374 C.3     1  UNL1        0.0163
     12 C          62.6909   86.0077   12.2623 C.3     1  UNL1        0.0057
     13 N          62.5415   82.1856   13.3204 N.3     1  UNL1       -0.2740
     14 C          63.2437   81.1466   12.4974 C.3     1  UNL1        0.0721
     15 C          62.6048   79.8198   12.7826 C.3     1  UNL1        0.0188
     16 C          61.5078   80.0387   13.7819 C.3     1  UNL1        0.0188
     17 C          61.4687   81.5009   14.1143 C.3     1  UNL1        0.0721
     18 O          64.7486   92.4496   13.4943 O.3     1  UNL1       -0.4754
     19 C          66.1702   92.9088   13.6285 C.3     1  UNL1        0.2068
     20 C          67.1746   92.5585   12.5710 C.3     1  UNL1        0.0646
     21 C          66.8353   92.7480   11.1222 C.3     1  UNL1        0.0759
     22 N          66.9105   94.1139   10.5068 N.3     1  UNL1       -0.2726
     23 C          67.5078   94.2898    9.1421 C.3     1  UNL1        0.0721
     24 C          67.5830   95.6557    8.5267 C.3     1  UNL1        0.0174
     25 C          67.0609   96.8456    9.2759 C.3     1  UNL1        0.0029
     26 C          66.4636   96.6697   10.6405 C.3     1  UNL1        0.0174
     27 C          66.3884   95.3039   11.2560 C.3     1  UNL1        0.0721
@<TRIPOS>BOND
     1     1     2   ar
     2     2     3   ar
     3     7     3    1
     4     7     8    1
     5     8     9    1
     6     9    10    1
     7    10    13    1
     8    13    14    1
     9    14    15    1
    10    15    16    1
    11    16    17    1
    12    10    11    1
    13    11    12    1
    14     3     4   ar
    15     4     5   ar
    16     5     6   ar
    17     6    18    1
    18    18    19    1
    19    19    20    1
    20    20    21    1
    21    21    22    1
    22    22    23    1
    23    23    24    1
    24    24    25    1
    25    25    26    1
    26    26    27    1
    27     6     1   ar
    28    27    22    1
    29    12     7    1
    30    17    13    1
@<TRIPOS>MOLECULE
*****
 27 30 0 0 0
SMALL
GASTEIGER

@<TRIPOS>ATOM
      1 C          61.3705   89.3246    9.1705 C.ar    1  UNL1        0.0366
      2 C          62.4931   89.9122    9.9733 C.ar    1  UNL1       -0.0012
      3 C          62.4040   89.9520   11.4701 C.ar    1  UNL1       -0.0223
      4 C          61.1924   89.4042   12.1641 C.ar    1  UNL1       -0.0012
      5 C          60.0698   88.8165   11.3613 C.ar    1  UNL1        0.0366
      6 C          60.1589   88.7768    9.8645 C.ar    1  UNL1        0.1385
      7 C          63.5267   90.5397   12.2729 C.3     1  UNL1        0.0224
      8 C          63.8721   89.9625   13.6136 C.3     1  UNL1        0.0057
      9 C          64.9947   90.5501   14.4164 C.3     1  UNL1        0.0163
     10 C          65.7719   91.7150   13.8785 C.3     1  UNL1        0.0575
     11 C          65.4264   92.2921   12.5377 C.3     1  UNL1        0.0163
     12 C          64.3037   91.7044   11.7349 C.3     1  UNL1        0.0057
     13 N          66.8944   92.3026   14.6812 N.3     1  UNL1       -0.2740
     14 C          67.9207   91.5319   15.4576 C.3     1  UNL1        0.0721
     15 C          68.8484   92.5170   16.1048 C.3     1  UNL1        0.0188
     16 C          68.3955   93.8966   15.7284 C.3     1  UNL1        0.0188
     17 C          67.1879   93.7640   14.8486 C.3     1  UNL1        0.0721
     18 O          59.0363   88.1891    9.0617 O.3     1  UNL1       -0.4754
     19 C          59.3348   87.3887    7.8288 C.3     1  UNL1        0.2068
     20 C          60.0533   86.0768    7.9419 C.3     1  UNL1        0.0646
     21 C          61.5475   86.0487    8.0711 C.3     1  UNL1        0.0759
     22 N          62.1862   85.3645    9.2433 N.3     1  UNL1       -0.2726
     23 C          61.7380   85.6901   10.6373 C.3     1  UNL1        0.0721
     24 C          62.3767   85.0059   11.8094 C.3     1  UNL1        0.0174
     25 C          63.4636   83.9963   11.5876 C.3     1  UNL1        0.0029
     26 C          63.9117   83.6707   10.1937 C.3     1  UNL1        0.0174
     27 C          63.2731   84.3549    9.0215 C.3     1  UNL1        0.0721
@<TRIPOS>BOND
     1     1     2   ar
     2     2     3   ar
     3     7     3    1
     4     7     8    1
     5     8     9    1
     6     9    10    1
     7    10    13    1
     8    13    14    1
     9    14    15    1
    10    15    16    1
    11    16    17    1
    12    10    11    1
    13    11    12    1
    14     3     4   ar
    15     4     5   ar
    16     5     6   ar
    17     6    18    1
    18    18    19    1
    19    19    20    1
    20    20    21    1
    21    21    22    1
    22    22    23    1
    23    23    24    1
    24    24    25    1
    25    25    26    1
    26    26    27    1
    27     6     1   ar
    28    27    22    1
    29    12     7    1
    30    17    13    1
@<TRIPOS>MOLECULE
*****
 27 30 0 0 0
SMALL
GASTEIGER

@<TRIPOS>ATOM
      1 C          59.9674   89.9426   10.1730 C.ar    1  UNL1        0.0366
      2 C          61.0510   90.5337   11.0253 C.ar    1  UNL1       -0.0012
      3 C          62.3838   89.8525   11.1234 C.ar    1  UNL1       -0.0223
      4 C          62.6330   88.5801   10.3691 C.ar    1  UNL1       -0.0012
      5 C          61.5494   87.9890    9.5168 C.ar    1  UNL1        0.0366
      6 C          60.2167   88.6702    9.4188 C.ar    1  UNL1        0.1385
      7 C          63.4673   90.4436   11.9757 C.3     1  UNL1        0.0224
      8 C          63.7774   89.8458   13.3160 C.3     1  UNL1        0.0057
      9 C          64.8609   90.4369   14.1684 C.3     1  UNL1        0.0163
     10 C          65.6344   91.6259   13.6805 C.3     1  UNL1        0.0575
     11 C          65.3243   92.2238   12.3402 C.3     1  UNL1        0.0163
     12 C          64.2407   91.6326   11.4878 C.3     1  UNL1        0.0057
     13 N          66.7179   92.2170   14.5328 N.3     1  UNL1       -0.2740
     14 C          66.9617   93.6795   14.7602 C.3     1  UNL1        0.0721
     15 C          68.1423   93.8158   15.6753 C.3     1  UNL1        0.0188
     16 C          68.6282   92.4376   16.0137 C.3     1  UNL1        0.0188
     17 C          67.7478   91.4495   15.3076 C.3     1  UNL1        0.0721
     18 O          59.1331   88.0791    8.5664 O.3     1  UNL1       -0.4754
     19 C          58.9852   88.5084    7.1368 C.3     1  UNL1        0.2068
     20 C          59.6857   89.7413    6.6476 C.3     1  UNL1        0.0646
     21 C          59.0146   90.6400    5.6518 C.3     1  UNL1        0.0759
     22 N          59.8321   91.3586    4.6196 N.3     1  UNL1       -0.2726
     23 C          59.1900   92.3884    3.7379 C.3     1  UNL1        0.0721
     24 C          60.0076   93.1069    2.7058 C.3     1  UNL1        0.0174
     25 C          61.4672   92.7958    2.5554 C.3     1  UNL1        0.0029
     26 C          62.1093   91.7660    3.4371 C.3     1  UNL1        0.0174
     27 C          61.2918   91.0475    4.4692 C.3     1  UNL1        0.0721
@<TRIPOS>BOND
     1     1     2   ar
     2     2     3   ar
     3     7     3    1
     4     7     8    1
     5     8     9    1
     6     9    10    1
     7    10    13    1
     8    13    14    1
     9    14    15    1
    10    15    16    1
    11    16    17    1
    12    10    11    1
    13    11    12    1
    14     3     4   ar
    15     4     5   ar
    16     5     6   ar
    17     6    18    1
    18    18    19    1
    19    19    20    1
    20    20    21    1
    21    21    22    1
    22    22    23    1
    23    23    24    1
    24    24    25    1
    25    25    26    1
    26    26    27    1
    27     6     1   ar
    28    27    22    1
    29    12     7    1
    30    17    13    1
@<TRIPOS>MOLECULE
*****
 27 30 0 0 0
SMALL
GASTEIGER

@<TRIPOS>ATOM
      1 C          61.8060   90.3188    9.4101 C.ar    1  UNL1        0.0366
      2 C          62.9596   90.8057   10.2360 C.ar    1  UNL1       -0.0012
      3 C          62.9191   90.6781   11.7300 C.ar    1  UNL1       -0.0223
      4 C          61.7249   90.0635   12.3981 C.ar    1  UNL1       -0.0012
      5 C          60.5714   89.5766   11.5722 C.ar    1  UNL1        0.0366
      6 C          60.6119   89.7043   10.0782 C.ar    1  UNL1        0.1385
      7 C          64.0727   91.1650   12.5559 C.3     1  UNL1        0.0224
      8 C          65.0097   92.1966   12.0011 C.3     1  UNL1        0.0057
      9 C          66.1633   92.6836   12.8269 C.3     1  UNL1        0.0163
     10 C          66.3800   92.1389   14.2076 C.3     1  UNL1        0.0575
     11 C          65.4430   91.1073   14.7625 C.3     1  UNL1        0.0163
     12 C          64.2894   90.6203   13.9366 C.3     1  UNL1        0.0057
     13 N          67.5336   92.6258   15.0335 N.3     1  UNL1       -0.2740
     14 C          68.5046   91.7651   15.7859 C.3     1  UNL1        0.0721
     15 C          69.4899   92.6663   16.4693 C.3     1  UNL1        0.0188
     16 C          69.1278   94.0841   16.1393 C.3     1  UNL1        0.0188
     17 C          67.9187   94.0590   15.2519 C.3     1  UNL1        0.0721
     18 O          59.4583   89.2173    9.2523 O.3     1  UNL1       -0.4754
     19 C          59.6211   89.0302    7.7730 C.3     1  UNL1        0.2068
     20 C          59.0373   87.8229    7.1009 C.3     1  UNL1        0.0646
     21 C          59.1785   86.4704    7.7339 C.3     1  UNL1        0.0759
     22 N          60.5306   85.9785    8.1583 N.3     1  UNL1       -0.2726
     23 C          61.4393   85.3266    7.1587 C.3     1  UNL1        0.0721
     24 C          62.7913   84.8347    7.5831 C.3     1  UNL1        0.0174
     25 C          63.2345   84.9946    9.0071 C.3     1  UNL1        0.0029
     26 C          62.3258   85.6465   10.0067 C.3     1  UNL1        0.0174
     27 C          60.9738   86.1384    9.5824 C.3     1  UNL1        0.0721
@<TRIPOS>BOND
     1     1     2   ar
     2     2     3   ar
     3     7     3    1
     4     7     8    1
     5     8     9    1
     6     9    10    1
     7    10    13    1
     8    13    14    1
     9    14    15    1
    10    15    16    1
    11    16    17    1
    12    10    11    1
    13    11    12    1
    14     3     4   ar
    15     4     5   ar
    16     5     6   ar
    17     6    18    1
    18    18    19    1
    19    19    20    1
    20    20    21    1
    21    21    22    1
    22    22    23    1
    23    23    24    1
    24    24    25    1
    25    25    26    1
    26    26    27    1
    27     6     1   ar
    28    27    22    1
    29    12     7    1
    30    17    13    1
@<TRIPOS>MOLECULE
*****
 27 30 0 0 0
SMALL
GASTEIGER

@<TRIPOS>ATOM
      1 C          64.1263   90.2621   13.1878 C.ar    1  UNL1        0.0366
      2 C          63.9295   88.7851   13.3602 C.ar    1  UNL1       -0.0012
      3 C          63.2708   87.9846   12.2760 C.ar    1  UNL1       -0.0223
      4 C          62.8090   88.6611   11.0195 C.ar    1  UNL1       -0.0012
      5 C          63.0058   90.1381   10.8470 C.ar    1  UNL1        0.0366
      6 C          63.6645   90.9386   11.9312 C.ar    1  UNL1        0.1385
      7 C          63.0740   86.5076   12.4485 C.3     1  UNL1        0.0224
      8 C          62.4437   85.7018   11.3515 C.3     1  UNL1        0.0057
      9 C          62.2469   84.2248   11.5239 C.3     1  UNL1        0.0163
     10 C          62.6804   83.5536   12.7934 C.3     1  UNL1        0.0575
     11 C          63.3107   84.3593   13.8905 C.3     1  UNL1        0.0163
     12 C          63.5075   85.8364   13.7180 C.3     1  UNL1        0.0057
     13 N          62.4835   82.0766   12.9659 N.3     1  UNL1       -0.2740
     14 C          61.7653   81.4095   14.1012 C.3     1  UNL1        0.0721
     15 C          61.8082   79.9280   13.8703 C.3     1  UNL1        0.0188
     16 C          62.5531   79.6795   12.5922 C.3     1  UNL1        0.0188
     17 C          62.9705   81.0074   12.0333 C.3     1  UNL1        0.0721
     18 O          63.8613   92.4156   11.7587 O.3     1  UNL1       -0.4754
     19 C          64.9108   92.9275   10.8171 C.3     1  UNL1        0.2068
     20 C          66.1921   93.4905   11.3566 C.3     1  UNL1        0.0646
     21 C          67.2068   92.5799   11.9823 C.3     1  UNL1        0.0759
     22 N          67.3836   92.5649   13.4718 N.3     1  UNL1       -0.2726
     23 C          68.7356   92.2976   14.0639 C.3     1  UNL1        0.0721
     24 C          68.9125   92.2826   15.5533 C.3     1  UNL1        0.0174
     25 C          67.7373   92.5347   16.4506 C.3     1  UNL1        0.0029
     26 C          66.3852   92.8020   15.8585 C.3     1  UNL1        0.0174
     27 C          66.2084   92.8170   14.3691 C.3     1  UNL1        0.0721
@<TRIPOS>BOND
     1     1     2   ar
     2     2     3   ar
     3     7     3    1
     4     7     8    1
     5     8     9    1
     6     9    10    1
     7    10    13    1
     8    13    14    1
     9    14    15    1
    10    15    16    1
    11    16    17    1
    12    10    11    1
    13    11    12    1
    14     3     4   ar
    15     4     5   ar
    16     5     6   ar
    17     6    18    1
    18    18    19    1
    19    19    20    1
    20    20    21    1
    21    21    22    1
    22    22    23    1
    23    23    24    1
    24    24    25    1
    25    25    26    1
    26    26    27    1
    27     6     1   ar
    28    27    22    1
    29    12     7    1
    30    17    13    1
@<TRIPOS>MOLECULE
*****
 27 30 0 0 0
SMALL
GASTEIGER

@<TRIPOS>ATOM
      1 C          59.7379   88.5740   10.9202 C.ar    1  UNL1        0.0366
      2 C          60.7925   89.3082   11.6938 C.ar    1  UNL1       -0.0012
      3 C          62.2427   89.0051   11.4587 C.ar    1  UNL1       -0.0223
      4 C          62.6381   87.9678   10.4500 C.ar    1  UNL1       -0.0012
      5 C          61.5834   87.2336    9.6763 C.ar    1  UNL1        0.0366
      6 C          60.1333   87.5367    9.9114 C.ar    1  UNL1        0.1385
      7 C          63.2974   89.7394   12.2324 C.3     1  UNL1        0.0224
      8 C          63.8278   89.1621   13.5112 C.3     1  UNL1        0.0057
      9 C          64.8825   89.8963   14.2849 C.3     1  UNL1        0.0163
     10 C          65.4067   91.2079   13.7797 C.3     1  UNL1        0.0575
     11 C          64.8762   91.7852   12.5009 C.3     1  UNL1        0.0163
     12 C          63.8215   91.0509   11.7272 C.3     1  UNL1        0.0057
     13 N          66.4613   91.9421   14.5534 N.3     1  UNL1       -0.2740
     14 C          66.2536   92.6880   15.8381 C.3     1  UNL1        0.0721
     15 C          67.5727   93.2662   16.2569 C.3     1  UNL1        0.0188
     16 C          68.5959   92.8777   15.2311 C.3     1  UNL1        0.0188
     17 C          67.9089   92.0593   14.1783 C.3     1  UNL1        0.0721
     18 O          59.0786   86.8024    9.1378 O.3     1  UNL1       -0.4754
     19 C          58.9470   87.0173    7.6591 C.3     1  UNL1        0.2068
     20 C          58.6615   88.3888    7.1230 C.3     1  UNL1        0.0646
     21 C          59.7937   89.3161    6.7940 C.3     1  UNL1        0.0759
     22 N          59.6078   90.3909    5.7642 N.3     1  UNL1       -0.2726
     23 C          60.7901   90.9125    5.0026 C.3     1  UNL1        0.0721
     24 C          60.6042   91.9872    3.9729 C.3     1  UNL1        0.0174
     25 C          59.2360   92.5404    3.7048 C.3     1  UNL1        0.0029
     26 C          58.0537   92.0189    4.4664 C.3     1  UNL1        0.0174
     27 C          58.2396   90.9441    5.4961 C.3     1  UNL1        0.0721
@<TRIPOS>BOND
     1     1     2   ar
     2     2     3   ar
     3     7     3    1
     4     7     8    1
     5     8     9    1
     6     9    10    1
     7    10    13    1
     8    13    14    1
     9    14    15    1
    10    15    16    1
    11    16    17    1
    12    10    11    1
    13    11    12    1
    14     3     4   ar
    15     4     5   ar
    16     5     6   ar
    17     6    18    1
    18    18    19    1
    19    19    20    1
    20    20    21    1
    21    21    22    1
    22    22    23    1
    23    23    24    1
    24    24    25    1
    25    25    26    1
    26    26    27    1
    27     6     1   ar
    28    27    22    1
    29    12     7    1
    30    17    13    1
