@<TRIPOS>MOLECULE
*****
 28 32 0 0 0
SMALL
GASTEIGER

@<TRIPOS>ATOM
      1 O          63.5071   87.4089   16.2490 O.2     1  UNL1       -0.2526
      2 C          63.6706   87.0700   14.7969 C.2     1  UNL1        0.3039
      3 N          64.0404   88.1409   13.8139 N.am    1  UNL1       -0.2901
      4 N          63.4643   85.6602   14.3280 N.am    1  UNL1       -0.2640
      5 C          63.0945   84.5893   15.3110 C.3     1  UNL1        0.0985
      6 C          62.8882   83.1796   14.8421 C.3     1  UNL1        0.0616
      7 C          63.0517   82.8407   13.3900 C.3     1  UNL1        0.1367
      8 C          62.6819   81.7697   14.3731 C.3     1  UNL1        0.0449
      9 C          62.4756   80.3600   13.9041 C.3     1  UNL1        0.0330
     10 C          62.6391   80.0211   12.4521 C.ar    1  UNL1        0.0119
     11 C          62.4328   78.6112   11.9831 C.ar    1  UNL1       -0.0013
     12 C          62.5963   78.2724   10.5311 C.ar    1  UNL1       -0.0001
     13 C          62.9660   79.3433    9.5480 C.ar    1  UNL1        0.0031
     14 C          63.1723   80.7531   10.0170 C.ar    1  UNL1        0.0366
     15 C          63.0089   81.0920   11.4690 C.ar    1  UNL1        0.1342
     16 O          63.2152   82.5018   11.9380 O.3     1  UNL1       -0.4828
     17 C          63.4215   83.9116   12.4070 C.3     1  UNL1        0.0616
     18 C          63.6278   85.3213   12.8759 C.3     1  UNL1        0.0985
     19 H          64.1476   87.9185   12.8609 H       1  UNL1        0.1509
     20 C          64.2467   89.5508   14.2828 C.3     1  UNL1        0.0774
     21 C          64.1956   90.5768   15.3758 C.3     1  UNL1        0.0259
     22 C          64.6551   90.9665   14.0022 C.3     1  UNL1        0.0420
     23 C          65.1562   92.0089   13.0470 C.ar    1  UNL1       -0.0208
     24 C          66.0319   93.1213   13.5426 C.ar    1  UNL1       -0.0042
     25 C          66.5330   94.1637   12.5875 C.ar    1  UNL1       -0.0003
     26 C          66.1584   94.0936   11.1367 C.ar    1  UNL1       -0.0000
     27 C          65.2827   92.9812   10.6411 C.ar    1  UNL1       -0.0003
     28 C          64.7816   91.9388   11.5963 C.ar    1  UNL1       -0.0042
@<TRIPOS>BOND
     1     1     2    2
     2     2     3   am
     3    20     3    1
     4    20    21    1
     5    21    22    1
     6    22    23    1
     7    23    24   ar
     8    24    25   ar
     9    25    26   ar
    10    26    27   ar
    11    27    28   ar
    12     2     4   am
    13     4     5    1
    14     5     6    1
    15     6     7    1
    16     7     8    1
    17     8     9    1
    18     9    10    1
    19    10    11   ar
    20    11    12   ar
    21    12    13   ar
    22    13    14   ar
    23    14    15   ar
    24    15    16    1
    25     7    17    1
    26    17    18    1
    27    22    20    1
    28    28    23   ar
    29    18     4    1
    30    16     7    1
    31    15    10   ar
    32     3    19    1
@<TRIPOS>MOLECULE
*****
 28 32 0 0 0
SMALL
GASTEIGER

@<TRIPOS>ATOM
      1 O          63.2676   87.5653   16.8241 O.2     1  UNL1       -0.2526
      2 C          63.5378   87.3051   15.3718 C.2     1  UNL1        0.3039
      3 N          63.9911   88.4237   14.4811 N.am    1  UNL1       -0.2901
      4 N          63.3547   85.9263   14.8101 N.am    1  UNL1       -0.2640
      5 C          62.9015   84.8078   15.7008 C.3     1  UNL1        0.0985
      6 C          62.7184   83.4290   15.1392 C.3     1  UNL1        0.0616
      7 C          62.9887   83.1688   13.6868 C.3     1  UNL1        0.1367
      8 C          62.5354   82.0502   14.5775 C.3     1  UNL1        0.0449
      9 C          62.3523   80.6714   14.0159 C.3     1  UNL1        0.0330
     10 C          62.6226   80.4112   12.5636 C.ar    1  UNL1        0.0119
     11 C          62.4395   79.0323   12.0019 C.ar    1  UNL1       -0.0013
     12 C          62.7098   78.7721   10.5496 C.ar    1  UNL1       -0.0001
     13 C          63.1631   79.8908    9.6589 C.ar    1  UNL1        0.0031
     14 C          63.3461   81.2695   10.2205 C.ar    1  UNL1        0.0366
     15 C          63.0758   81.5297   11.6729 C.ar    1  UNL1        0.1342
     16 O          63.2589   82.9086   12.2345 O.3     1  UNL1       -0.4828
     17 C          63.4419   84.2873   12.7962 C.3     1  UNL1        0.0616
     18 C          63.6250   85.6661   13.3578 C.3     1  UNL1        0.0985
     19 H          64.1684   88.2529   13.5279 H       1  UNL1        0.1509
     20 C          64.1741   89.8025   15.0427 C.3     1  UNL1        0.0774
     21 C          63.6206   90.9952   15.7645 C.3     1  UNL1        0.0259
     22 C          65.0447   90.9979   15.2937 C.3     1  UNL1        0.0420
     23 C          66.3696   91.6897   15.1668 C.ar    1  UNL1       -0.0208
     24 C          66.7921   92.6956   16.1961 C.ar    1  UNL1       -0.0042
     25 C          68.1170   93.3873   16.0692 C.ar    1  UNL1       -0.0003
     26 C          69.0195   93.0731   14.9130 C.ar    1  UNL1       -0.0000
     27 C          68.5970   92.0671   13.8837 C.ar    1  UNL1       -0.0003
     28 C          67.2720   91.3754   14.0106 C.ar    1  UNL1       -0.0042
@<TRIPOS>BOND
     1     1     2    2
     2     2     3   am
     3    20     3    1
     4    20    21    1
     5    21    22    1
     6    22    23    1
     7    23    24   ar
     8    24    25   ar
     9    25    26   ar
    10    26    27   ar
    11    27    28   ar
    12     2     4   am
    13     4     5    1
    14     5     6    1
    15     6     7    1
    16     7     8    1
    17     8     9    1
    18     9    10    1
    19    10    11   ar
    20    11    12   ar
    21    12    13   ar
    22    13    14   ar
    23    14    15   ar
    24    15    16    1
    25     7    17    1
    26    17    18    1
    27    22    20    1
    28    28    23   ar
    29    18     4    1
    30    16     7    1
    31    15    10   ar
    32     3    19    1
@<TRIPOS>MOLECULE
*****
 28 32 0 0 0
SMALL
GASTEIGER

@<TRIPOS>ATOM
      1 O          60.6694   90.4777    9.0071 O.2     1  UNL1       -0.2526
      2 C          60.5245   89.0247    8.6639 C.2     1  UNL1        0.3039
      3 N          59.7909   88.6173    7.4206 N.am    1  UNL1       -0.2901
      4 N          61.1132   87.9792    9.5642 N.am    1  UNL1       -0.2640
      5 C          61.8467   88.3866   10.8074 C.3     1  UNL1        0.0985
      6 C          62.4354   87.3411   11.7076 C.3     1  UNL1        0.0616
      7 C          62.2905   85.8881   11.3644 C.3     1  UNL1        0.1367
      8 C          63.0241   86.2955   12.6078 C.3     1  UNL1        0.0449
      9 C          63.6127   85.2500   13.5079 C.3     1  UNL1        0.0330
     10 C          63.4678   83.7970   13.1648 C.ar    1  UNL1        0.0119
     11 C          64.0565   82.7514   14.0650 C.ar    1  UNL1       -0.0013
     12 C          63.9115   81.2984   13.7219 C.ar    1  UNL1       -0.0001
     13 C          63.1779   80.8910   12.4785 C.ar    1  UNL1        0.0031
     14 C          62.5893   81.9365   11.5784 C.ar    1  UNL1        0.0366
     15 C          62.7342   83.3895   11.9215 C.ar    1  UNL1        0.1342
     16 O          62.1455   84.4351   11.0213 O.3     1  UNL1       -0.4828
     17 C          61.5569   85.4806   10.1212 C.3     1  UNL1        0.0616
     18 C          60.9683   86.5262    9.2210 C.3     1  UNL1        0.0985
     19 H          59.6958   87.6636    7.1954 H       1  UNL1        0.1509
     20 C          59.2023   89.6628    6.5204 C.3     1  UNL1        0.0774
     21 C          58.0196   90.4584    6.0533 C.3     1  UNL1        0.0259
     22 C          59.3653   90.6781    5.4284 C.3     1  UNL1        0.0420
     23 C          60.2365   91.3912    4.4371 C.ar    1  UNL1       -0.0208
     24 C          61.6701   90.9833    4.2688 C.ar    1  UNL1       -0.0042
     25 C          62.5413   91.6964    3.2775 C.ar    1  UNL1       -0.0003
     26 C          61.9788   92.8173    2.4546 C.ar    1  UNL1       -0.0000
     27 C          60.5452   93.2252    2.6230 C.ar    1  UNL1       -0.0003
     28 C          59.6740   92.5121    3.6143 C.ar    1  UNL1       -0.0042
@<TRIPOS>BOND
     1     1     2    2
     2     2     3   am
     3    20     3    1
     4    20    21    1
     5    21    22    1
     6    22    23    1
     7    23    24   ar
     8    24    25   ar
     9    25    26   ar
    10    26    27   ar
    11    27    28   ar
    12     2     4   am
    13     4     5    1
    14     5     6    1
    15     6     7    1
    16     7     8    1
    17     8     9    1
    18     9    10    1
    19    10    11   ar
    20    11    12   ar
    21    12    13   ar
    22    13    14   ar
    23    14    15   ar
    24    15    16    1
    25     7    17    1
    26    17    18    1
    27    22    20    1
    28    28    23   ar
    29    18     4    1
    30    16     7    1
    31    15    10   ar
    32     3    19    1
@<TRIPOS>MOLECULE
*****
 28 32 0 0 0
SMALL
GASTEIGER

@<TRIPOS>ATOM
      1 O          64.6939   90.9323   16.0365 O.2     1  UNL1       -0.2526
      2 C          64.7257   90.1642   14.7485 C.2     1  UNL1        0.3039
      3 N          65.2205   90.8224   13.4947 N.am    1  UNL1       -0.2901
      4 N          64.2626   88.7378   14.7142 N.am    1  UNL1       -0.2640
      5 C          63.7678   88.0796   15.9680 C.3     1  UNL1        0.0985
      6 C          63.3048   86.6533   15.9337 C.3     1  UNL1        0.0616
      7 C          63.3365   85.8852   14.6456 C.3     1  UNL1        0.1367
      8 C          62.8417   85.2270   15.8994 C.3     1  UNL1        0.0449
      9 C          62.3786   83.8007   15.8651 C.3     1  UNL1        0.0330
     10 C          62.4104   83.0326   14.5771 C.ar    1  UNL1        0.0119
     11 C          61.9474   81.6062   14.5428 C.ar    1  UNL1       -0.0013
     12 C          61.9792   80.8381   13.2548 C.ar    1  UNL1       -0.0001
     13 C          62.4740   81.4964   12.0010 C.ar    1  UNL1        0.0031
     14 C          62.9370   82.9227   12.0353 C.ar    1  UNL1        0.0366
     15 C          62.9053   83.6908   13.3234 C.ar    1  UNL1        0.1342
     16 O          63.3683   85.1171   13.3576 O.3     1  UNL1       -0.4828
     17 C          63.8314   86.5434   13.3919 C.3     1  UNL1        0.0616
     18 C          64.2944   87.9697   13.4262 C.3     1  UNL1        0.0985
     19 H          65.2414   90.3183   12.6494 H       1  UNL1        0.1509
     20 C          65.6836   92.2488   13.5290 C.3     1  UNL1        0.0774
     21 C          66.0584   93.4745   14.3081 C.3     1  UNL1        0.0259
     22 C          66.1108   93.4935   12.8092 C.3     1  UNL1        0.0420
     23 C          66.3878   94.2231   11.5282 C.ar    1  UNL1       -0.0208
     24 C          66.9362   93.4808   10.3458 C.ar    1  UNL1       -0.0042
     25 C          67.2132   94.2104    9.0648 C.ar    1  UNL1       -0.0003
     26 C          66.9417   95.6823    8.9662 C.ar    1  UNL1       -0.0000
     27 C          66.3932   96.4247   10.1487 C.ar    1  UNL1       -0.0003
     28 C          66.1163   95.6950   11.4297 C.ar    1  UNL1       -0.0042
@<TRIPOS>BOND
     1     1     2    2
     2     2     3   am
     3    20     3    1
     4    20    21    1
     5    21    22    1
     6    22    23    1
     7    23    24   ar
     8    24    25   ar
     9    25    26   ar
    10    26    27   ar
    11    27    28   ar
    12     2     4   am
    13     4     5    1
    14     5     6    1
    15     6     7    1
    16     7     8    1
    17     8     9    1
    18     9    10    1
    19    10    11   ar
    20    11    12   ar
    21    12    13   ar
    22    13    14   ar
    23    14    15   ar
    24    15    16    1
    25     7    17    1
    26    17    18    1
    27    22    20    1
    28    28    23   ar
    29    18     4    1
    30    16     7    1
    31    15    10   ar
    32     3    19    1
@<TRIPOS>MOLECULE
*****
 28 32 0 0 0
SMALL
GASTEIGER

@<TRIPOS>ATOM
      1 O          58.0125   90.4671    5.8656 O.2     1  UNL1       -0.2526
      2 C          59.4800   90.4690    5.5551 C.2     1  UNL1        0.3039
      3 N          60.4056   89.5543    6.3011 N.am    1  UNL1       -0.2901
      4 N          60.0219   91.3856    4.4985 N.am    1  UNL1       -0.2640
      5 C          59.0963   92.3003    3.7525 C.3     1  UNL1        0.0985
      6 C          59.6382   93.2168    2.6960 C.3     1  UNL1        0.0616
      7 C          61.1057   93.2187    2.3855 C.3     1  UNL1        0.1367
      8 C          60.1801   94.1334    1.6394 C.3     1  UNL1        0.0449
      9 C          60.7220   95.0500    0.5829 C.3     1  UNL1        0.0330
     10 C          62.1895   95.0519    0.2724 C.ar    1  UNL1        0.0119
     11 C          62.7314   95.9685   -0.7841 C.ar    1  UNL1       -0.0013
     12 C          64.1989   95.9703   -1.0946 C.ar    1  UNL1       -0.0001
     13 C          65.1245   95.0556   -0.3486 C.ar    1  UNL1        0.0031
     14 C          64.5826   94.1390    0.7079 C.ar    1  UNL1        0.0366
     15 C          63.1151   94.1372    1.0184 C.ar    1  UNL1        0.1342
     16 O          62.5732   93.2206    2.0750 O.3     1  UNL1       -0.4828
     17 C          62.0313   92.3040    3.1315 C.3     1  UNL1        0.0616
     18 C          61.4894   91.3875    4.1880 C.3     1  UNL1        0.0985
     19 H          61.3688   89.5555    6.0972 H       1  UNL1        0.1509
     20 C          59.8637   88.6377    7.3576 C.3     1  UNL1        0.0774
     21 C          58.7021   88.0997    8.1394 C.3     1  UNL1        0.0259
     22 C          60.0867   87.5881    8.4058 C.3     1  UNL1        0.0420
     23 C          61.0149   86.6868    9.1647 C.ar    1  UNL1       -0.0208
     24 C          60.9276   86.6078   10.6601 C.ar    1  UNL1       -0.0042
     25 C          61.8558   85.7065   11.4190 C.ar    1  UNL1       -0.0003
     26 C          62.8714   84.8841   10.6826 C.ar    1  UNL1       -0.0000
     27 C          62.9587   84.9631    9.1872 C.ar    1  UNL1       -0.0003
     28 C          62.0305   85.8645    8.4283 C.ar    1  UNL1       -0.0042
@<TRIPOS>BOND
     1     1     2    2
     2     2     3   am
     3    20     3    1
     4    20    21    1
     5    21    22    1
     6    22    23    1
     7    23    24   ar
     8    24    25   ar
     9    25    26   ar
    10    26    27   ar
    11    27    28   ar
    12     2     4   am
    13     4     5    1
    14     5     6    1
    15     6     7    1
    16     7     8    1
    17     8     9    1
    18     9    10    1
    19    10    11   ar
    20    11    12   ar
    21    12    13   ar
    22    13    14   ar
    23    14    15   ar
    24    15    16    1
    25     7    17    1
    26    17    18    1
    27    22    20    1
    28    28    23   ar
    29    18     4    1
    30    16     7    1
    31    15    10   ar
    32     3    19    1
@<TRIPOS>MOLECULE
*****
 28 32 0 0 0
SMALL
GASTEIGER

@<TRIPOS>ATOM
      1 O          72.5879   79.2689   13.5375 O.2     1  UNL1       -0.2526
      2 C          72.3110   78.0811   12.6642 C.2     1  UNL1        0.3039
      3 N          72.1811   78.2555   11.1801 N.am    1  UNL1       -0.2901
      4 N          72.1640   76.7190   13.2751 N.am    1  UNL1       -0.2640
      5 C          72.2938   76.5447   14.7593 C.3     1  UNL1        0.0985
      6 C          72.1468   75.1827   15.3701 C.3     1  UNL1        0.0616
      7 C          71.8698   73.9950   14.4968 C.3     1  UNL1        0.1367
      8 C          71.9997   73.8206   15.9810 C.3     1  UNL1        0.0449
      9 C          71.8527   72.4585   16.5919 C.3     1  UNL1        0.0330
     10 C          71.5757   71.2708   15.7186 C.ar    1  UNL1        0.0119
     11 C          71.4287   69.9087   16.3295 C.ar    1  UNL1       -0.0013
     12 C          71.1517   68.7210   15.4562 C.ar    1  UNL1       -0.0001
     13 C          71.0219   68.8954   13.9720 C.ar    1  UNL1        0.0031
     14 C          71.1689   70.2574   13.3612 C.ar    1  UNL1        0.0366
     15 C          71.4458   71.4451   14.2345 C.ar    1  UNL1        0.1342
     16 O          71.5929   72.8072   13.6235 O.3     1  UNL1       -0.4828
     17 C          71.7400   74.1693   13.0127 C.3     1  UNL1        0.0616
     18 C          71.8870   75.5313   12.4019 C.3     1  UNL1        0.0985
     19 H          71.9994   77.4759   10.6069 H       1  UNL1        0.1509
     20 C          72.3282   79.6176   10.5692 C.3     1  UNL1        0.0774
     21 C          72.6218   81.0814   10.7140 C.3     1  UNL1        0.0259
     22 C          72.2892   80.5129    9.3663 C.3     1  UNL1        0.0420
     23 C          72.0747   80.7016    7.8938 C.ar    1  UNL1       -0.0208
     24 C          72.0699   82.0822    7.3074 C.ar    1  UNL1       -0.0042
     25 C          71.8554   82.2709    5.8349 C.ar    1  UNL1       -0.0003
     26 C          71.6457   81.0789    4.9487 C.ar    1  UNL1       -0.0000
     27 C          71.6506   79.6982    5.5351 C.ar    1  UNL1       -0.0003
     28 C          71.8651   79.5096    7.0077 C.ar    1  UNL1       -0.0042
@<TRIPOS>BOND
     1     1     2    2
     2     2     3   am
     3    20     3    1
     4    20    21    1
     5    21    22    1
     6    22    23    1
     7    23    24   ar
     8    24    25   ar
     9    25    26   ar
    10    26    27   ar
    11    27    28   ar
    12     2     4   am
    13     4     5    1
    14     5     6    1
    15     6     7    1
    16     7     8    1
    17     8     9    1
    18     9    10    1
    19    10    11   ar
    20    11    12   ar
    21    12    13   ar
    22    13    14   ar
    23    14    15   ar
    24    15    16    1
    25     7    17    1
    26    17    18    1
    27    22    20    1
    28    28    23   ar
    29    18     4    1
    30    16     7    1
    31    15    10   ar
    32     3    19    1
@<TRIPOS>MOLECULE
*****
 28 32 0 0 0
SMALL
GASTEIGER

@<TRIPOS>ATOM
      1 O          63.7671   90.7974   12.2131 O.2     1  UNL1       -0.2526
      2 C          64.2854   89.7927   13.1990 C.2     1  UNL1        0.3039
      3 N          65.1706   90.2356   14.3260 N.am    1  UNL1       -0.2901
      4 N          63.9184   88.3451   13.0579 N.am    1  UNL1       -0.2640
      5 C          63.0331   87.9023   11.9309 C.3     1  UNL1        0.0985
      6 C          62.6662   86.4547   11.7898 C.3     1  UNL1        0.0616
      7 C          63.1845   85.4501   12.7757 C.3     1  UNL1        0.1367
      8 C          62.2992   85.0071   11.6487 C.3     1  UNL1        0.0449
      9 C          61.9323   83.5596   11.5076 C.3     1  UNL1        0.0330
     10 C          62.4506   82.5549   12.4935 C.ar    1  UNL1        0.0119
     11 C          62.0836   81.1073   12.3524 C.ar    1  UNL1       -0.0013
     12 C          62.6019   80.1027   13.3383 C.ar    1  UNL1       -0.0001
     13 C          63.4871   80.5456   14.4654 C.ar    1  UNL1        0.0031
     14 C          63.8541   81.9931   14.6064 C.ar    1  UNL1        0.0366
     15 C          63.3358   82.9978   13.6205 C.ar    1  UNL1        0.1342
     16 O          63.7028   84.4454   13.7617 O.3     1  UNL1       -0.4828
     17 C          64.0697   85.8929   13.9027 C.3     1  UNL1        0.0616
     18 C          64.4367   87.3405   14.0438 C.3     1  UNL1        0.0985
     19 H          65.5107   89.5762   14.9731 H       1  UNL1        0.1509
     20 C          65.5376   91.6832   14.4672 C.3     1  UNL1        0.0774
     21 C          65.7746   92.8848   15.3332 C.3     1  UNL1        0.0259
     22 C          65.9362   92.9889   13.8456 C.3     1  UNL1        0.0420
     23 C          66.2596   93.8028   12.6279 C.ar    1  UNL1       -0.0208
     24 C          66.2668   95.3007   12.7071 C.ar    1  UNL1       -0.0042
     25 C          66.5902   96.1146   11.4893 C.ar    1  UNL1       -0.0003
     26 C          66.9064   95.4306   10.1923 C.ar    1  UNL1       -0.0000
     27 C          66.8992   93.9327   10.1131 C.ar    1  UNL1       -0.0003
     28 C          66.5758   93.1188   11.3309 C.ar    1  UNL1       -0.0042
@<TRIPOS>BOND
     1     1     2    2
     2     2     3   am
     3    20     3    1
     4    20    21    1
     5    21    22    1
     6    22    23    1
     7    23    24   ar
     8    24    25   ar
     9    25    26   ar
    10    26    27   ar
    11    27    28   ar
    12     2     4   am
    13     4     5    1
    14     5     6    1
    15     6     7    1
    16     7     8    1
    17     8     9    1
    18     9    10    1
    19    10    11   ar
    20    11    12   ar
    21    12    13   ar
    22    13    14   ar
    23    14    15   ar
    24    15    16    1
    25     7    17    1
    26    17    18    1
    27    22    20    1
    28    28    23   ar
    29    18     4    1
    30    16     7    1
    31    15    10   ar
    32     3    19    1
@<TRIPOS>MOLECULE
*****
 28 32 0 0 0
SMALL
GASTEIGER

@<TRIPOS>ATOM
      1 O          58.0732   91.2160    5.0596 O.2     1  UNL1       -0.2526
      2 C          59.5457   91.2584    4.7770 C.2     1  UNL1        0.3039
      3 N          60.4946   90.4603    5.6211 N.am    1  UNL1       -0.2901
      4 N          60.0693   92.0989    3.6503 N.am    1  UNL1       -0.2640
      5 C          59.1204   92.8970    2.8062 C.3     1  UNL1        0.0985
      6 C          59.6440   93.7375    1.6796 C.3     1  UNL1        0.0616
      7 C          61.1165   93.7799    1.3970 C.3     1  UNL1        0.1367
      8 C          60.1676   94.5780    0.5529 C.3     1  UNL1        0.0449
      9 C          60.6912   95.4185   -0.5738 C.3     1  UNL1        0.0330
     10 C          62.1637   95.4609   -0.8563 C.ar    1  UNL1        0.0119
     11 C          62.6873   96.3015   -1.9830 C.ar    1  UNL1       -0.0013
     12 C          64.1599   96.3439   -2.2656 C.ar    1  UNL1       -0.0001
     13 C          65.1088   95.5458   -1.4214 C.ar    1  UNL1        0.0031
     14 C          64.5852   94.7053   -0.2947 C.ar    1  UNL1        0.0366
     15 C          63.1127   94.6629   -0.0122 C.ar    1  UNL1        0.1342
     16 O          62.5891   93.8223    1.1145 O.3     1  UNL1       -0.4828
     17 C          62.0655   92.9818    2.2411 C.3     1  UNL1        0.0616
     18 C          61.5418   92.1413    3.3678 C.3     1  UNL1        0.0985
     19 H          61.4611   90.4881    5.4357 H       1  UNL1        0.1509
     20 C          59.9710   89.6198    6.7478 C.3     1  UNL1        0.0774
     21 C          59.0148   88.5838    7.2601 C.3     1  UNL1        0.0259
     22 C          60.0204   89.1998    8.1870 C.3     1  UNL1        0.0420
     23 C          60.6295   89.3130    9.5530 C.ar    1  UNL1       -0.0208
     24 C          61.9571   88.6754    9.8375 C.ar    1  UNL1       -0.0042
     25 C          62.5663   88.7886   11.2035 C.ar    1  UNL1       -0.0003
     26 C          61.8478   89.5395   12.2852 C.ar    1  UNL1       -0.0000
     27 C          60.5202   90.1771   12.0008 C.ar    1  UNL1       -0.0003
     28 C          59.9110   90.0639   10.6347 C.ar    1  UNL1       -0.0042
@<TRIPOS>BOND
     1     1     2    2
     2     2     3   am
     3    20     3    1
     4    20    21    1
     5    21    22    1
     6    22    23    1
     7    23    24   ar
     8    24    25   ar
     9    25    26   ar
    10    26    27   ar
    11    27    28   ar
    12     2     4   am
    13     4     5    1
    14     5     6    1
    15     6     7    1
    16     7     8    1
    17     8     9    1
    18     9    10    1
    19    10    11   ar
    20    11    12   ar
    21    12    13   ar
    22    13    14   ar
    23    14    15   ar
    24    15    16    1
    25     7    17    1
    26    17    18    1
    27    22    20    1
    28    28    23   ar
    29    18     4    1
    30    16     7    1
    31    15    10   ar
    32     3    19    1
@<TRIPOS>MOLECULE
*****
 28 32 0 0 0
SMALL
GASTEIGER

@<TRIPOS>ATOM
      1 O          59.7673   89.0484   11.2944 O.2     1  UNL1       -0.2526
      2 C          61.0954   89.5217   10.7822 C.2     1  UNL1        0.3039
      3 N          61.3758   89.5172    9.3087 N.am    1  UNL1       -0.2901
      4 N          62.1430   89.9995   11.7436 N.am    1  UNL1       -0.2640
      5 C          61.8626   90.0040   13.2171 C.3     1  UNL1        0.0985
      6 C          62.9102   90.4817   14.1785 C.3     1  UNL1        0.0616
      7 C          64.2383   90.9550   13.6663 C.3     1  UNL1        0.1367
      8 C          63.9579   90.9595   15.1399 C.3     1  UNL1        0.0449
      9 C          65.0055   91.4373   16.1012 C.3     1  UNL1        0.0330
     10 C          66.3335   91.9105   15.5890 C.ar    1  UNL1        0.0119
     11 C          67.3812   92.3883   16.5505 C.ar    1  UNL1       -0.0013
     12 C          68.7092   92.8615   16.0383 C.ar    1  UNL1       -0.0001
     13 C          68.9896   92.8570   14.5647 C.ar    1  UNL1        0.0031
     14 C          67.9420   92.3792   13.6033 C.ar    1  UNL1        0.0366
     15 C          66.6140   91.9060   14.1155 C.ar    1  UNL1        0.1342
     16 O          65.5663   91.4282   13.1541 O.3     1  UNL1       -0.4828
     17 C          64.5187   90.9504   12.1928 C.3     1  UNL1        0.0616
     18 C          63.4711   90.4727   11.2314 C.3     1  UNL1        0.0985
     19 H          62.2475   89.8278    8.9725 H       1  UNL1        0.1509
     20 C          60.3282   89.0394    8.3473 C.3     1  UNL1        0.0774
     21 C          59.4145   87.9569    7.8541 C.3     1  UNL1        0.0259
     22 C          59.4274   89.2944    7.1753 C.3     1  UNL1        0.0420
     23 C          58.9148   90.2138    6.1068 C.ar    1  UNL1       -0.0208
     24 C          57.4378   90.3675    5.8947 C.ar    1  UNL1       -0.0042
     25 C          56.9252   91.2870    4.8261 C.ar    1  UNL1       -0.0003
     26 C          57.8896   92.0528    3.9696 C.ar    1  UNL1       -0.0000
     27 C          59.3666   91.8992    4.1817 C.ar    1  UNL1       -0.0003
     28 C          59.8792   90.9796    5.2503 C.ar    1  UNL1       -0.0042
@<TRIPOS>BOND
     1     1     2    2
     2     2     3   am
     3    20     3    1
     4    20    21    1
     5    21    22    1
     6    22    23    1
     7    23    24   ar
     8    24    25   ar
     9    25    26   ar
    10    26    27   ar
    11    27    28   ar
    12     2     4   am
    13     4     5    1
    14     5     6    1
    15     6     7    1
    16     7     8    1
    17     8     9    1
    18     9    10    1
    19    10    11   ar
    20    11    12   ar
    21    12    13   ar
    22    13    14   ar
    23    14    15   ar
    24    15    16    1
    25     7    17    1
    26    17    18    1
    27    22    20    1
    28    28    23   ar
    29    18     4    1
    30    16     7    1
    31    15    10   ar
    32     3    19    1
