@<TRIPOS>MOLECULE
*****
 40 43 0 0 0
SMALL
GASTEIGER

@<TRIPOS>ATOM
      1 C          61.9498   88.4921   11.0670 C.3     1  UNL1        0.0808
      2 C          63.6853   89.3020   12.8227 C.ar    1  UNL1        0.2211
      3 N          64.7095   90.3018   13.2715 N.ar    1  UNL1       -0.2119
      4 C          65.0226   91.4915   12.4133 C.ar    1  UNL1        0.0844
      5 C          66.0468   92.4913   12.8620 C.ar    1  UNL1        0.0197
      6 C          66.3598   93.6810   12.0038 C.ar    1  UNL1        0.0082
      7 C          65.6487   93.8710   10.6969 C.ar    1  UNL1        0.0347
      8 BR         65.9617   95.0607    9.8386 Br      1  UNL1       -0.0490
      9 C          64.6244   92.8712   10.2481 C.ar    1  UNL1        0.0082
     10 C          64.3113   91.6814   11.1063 C.ar    1  UNL1        0.0181
     11 C          63.2871   90.6817   10.6576 C.ar    1  UNL1        0.0023
     12 C          62.9741   89.4919   11.5158 C.ar    1  UNL1        0.0375
     13 C          64.3500   87.6634   14.7262 C.3     1  UNL1        0.2542
     14 O          63.3722   88.1122   13.6810 O.3     1  UNL1       -0.4563
     15 C          62.3845   87.2215   10.3989 C.ar    1  UNL1        0.0245
     16 C          62.8503   87.2452    8.9731 C.ar    1  UNL1        0.0200
     17 C          63.2851   85.9745    8.3050 C.ar    1  UNL1        0.1019
     18 N          63.2540   84.6802    9.0625 N.ar    1  UNL1       -0.2076
     19 C          62.7882   84.6565   10.4881 C.ar    1  UNL1        0.2598
     20 C          62.3535   85.9272   11.1563 C.ar    1  UNL1        0.1879
     21 O          62.7572   83.3622   11.2456 O.3     1  UNL1       -0.4541
     22 C          63.7932   82.3112   10.9774 C.3     1  UNL1        0.2543
     23 O          61.8877   85.9035   12.5819 O.3     1  UNL1       -0.4670
     24 C          62.4269   84.8738   13.5301 C.3     1  UNL1        0.2527
     25 C          60.4909   88.7630   11.2864 C.3     1  UNL1        0.1159
     26 O          60.7837   89.2031   12.6902 O.3     1  UNL1       -0.3820
     27 H          61.3739   89.9727   12.6712 H       1  UNL1        0.2107
     28 C          60.1981   88.3228    9.8827 C.ar    1  UNL1        0.0030
     29 C          59.9809   86.8694    9.5823 C.ar    1  UNL1       -0.0020
     30 C          59.6880   86.4292    8.1785 C.ar    1  UNL1        0.0004
     31 C          59.6124   87.4426    7.0752 C.ar    1  UNL1        0.0103
     32 C          59.8296   88.8960    7.3756 C.ar    1  UNL1        0.0682
     33 C          60.1225   89.3362    8.7793 C.ar    1  UNL1        0.0083
     34 C          59.7540   89.9094    6.2721 C.1     1  UNL1        0.1004
     35 N          59.6784   90.9227    5.1688 N.1     1  UNL1       -0.1908
     36 C          59.0320   89.0338   11.5058 C.3     1  UNL1        0.0491
     37 C          58.5599   89.5789   12.8211 C.3     1  UNL1        0.0750
     38 N          58.0437   88.6472   13.8773 N.3     1  UNL1       -0.2702
     39 C          56.7515   87.9156   13.6655 C.3     1  UNL1        0.0897
     40 C          58.8198   88.4470   15.1452 C.3     1  UNL1        0.0897
@<TRIPOS>BOND
     1    13    14    1
     2    14     2    1
     3     2     3   ar
     4     3     4   ar
     5     4     5   ar
     6     5     6   ar
     7     6     7   ar
     8     7     8    1
     9     7     9   ar
    10     9    10   ar
    11    10    11   ar
    12    11    12   ar
    13     1    12    1
    14     1    15    1
    15    15    16   ar
    16    16    17   ar
    17    17    18   ar
    18    18    19   ar
    19    19    21    1
    20    21    22    1
    21    19    20   ar
    22    20    23    1
    23    23    24    1
    24     1    25    1
    25    25    26    1
    26    25    36    1
    27    36    37    1
    28    37    38    1
    29    38    39    1
    30    38    40    1
    31    25    28    1
    32    28    29   ar
    33    29    30   ar
    34    30    31   ar
    35    31    32   ar
    36    32    34    1
    37    34    35    3
    38    32    33   ar
    39    12     2   ar
    40    20    15   ar
    41    33    28   ar
    42    10     4   ar
    43    26    27    1
@<TRIPOS>MOLECULE
*****
 40 43 0 0 0
SMALL
GASTEIGER

@<TRIPOS>ATOM
      1 C          62.0120   87.7778   10.4941 C.3     1  UNL1        0.0808
      2 C          63.2931   87.5214   12.7398 C.ar    1  UNL1        0.2211
      3 N          63.8012   86.6550   13.8540 N.ar    1  UNL1       -0.2119
      4 C          63.5365   85.1786   13.8364 C.ar    1  UNL1        0.0844
      5 C          64.0447   84.3122   14.9504 C.ar    1  UNL1        0.0197
      6 C          63.7800   82.8359   14.9328 C.ar    1  UNL1        0.0082
      7 C          63.0071   82.2259   13.8012 C.ar    1  UNL1        0.0347
      8 BR         62.7424   80.7496   13.7836 Br      1  UNL1       -0.0490
      9 C          62.4989   83.0923   12.6871 C.ar    1  UNL1        0.0082
     10 C          62.7636   84.5687   12.7047 C.ar    1  UNL1        0.0181
     11 C          62.2555   85.4351   11.5906 C.ar    1  UNL1        0.0023
     12 C          62.5202   86.9114   11.6082 C.ar    1  UNL1        0.0375
     13 C          63.4286   89.7677   14.0383 C.3     1  UNL1        0.2542
     14 O          63.5578   88.9977   12.7574 O.3     1  UNL1       -0.4563
     15 C          61.2752   87.1622    9.3417 C.ar    1  UNL1        0.0245
     16 C          59.8765   87.6020    9.0249 C.ar    1  UNL1        0.0200
     17 C          59.1396   86.9864    7.8725 C.ar    1  UNL1        0.1019
     18 N          59.8014   85.9310    7.0369 N.ar    1  UNL1       -0.2076
     19 C          61.2001   85.4912    7.3537 C.ar    1  UNL1        0.2598
     20 C          61.9369   86.1069    8.5061 C.ar    1  UNL1        0.1879
     21 O          61.8618   84.4359    6.5181 O.3     1  UNL1       -0.4541
     22 C          61.7203   84.4633    5.0251 C.3     1  UNL1        0.2543
     23 O          63.3356   85.6671    8.8230 O.3     1  UNL1       -0.4670
     24 C          63.6286   84.2163    9.0665 C.3     1  UNL1        0.2527
     25 C          62.2407   89.2598   10.5324 C.3     1  UNL1        0.1159
     26 O          63.5886   89.0681    9.9029 O.3     1  UNL1       -0.3820
     27 H          63.4821   88.6640    9.0275 H       1  UNL1        0.2107
     28 C          60.8928   89.4515   11.1620 C.ar    1  UNL1        0.0030
     29 C          60.1869   88.2876   11.7921 C.ar    1  UNL1       -0.0020
     30 C          58.8390   88.4794   12.4216 C.ar    1  UNL1        0.0004
     31 C          58.1970   89.8350   12.4211 C.ar    1  UNL1        0.0103
     32 C          58.9029   90.9989   11.7911 C.ar    1  UNL1        0.0682
     33 C          60.2508   90.8072   11.1615 C.ar    1  UNL1        0.0083
     34 C          58.2608   92.3546   11.7906 C.1     1  UNL1        0.1004
     35 N          57.6188   93.7102   11.7901 N.1     1  UNL1       -0.1908
     36 C          62.4694   90.7417   10.5708 C.3     1  UNL1        0.0491
     37 C          63.7207   91.3230    9.9823 C.3     1  UNL1        0.0750
     38 N          64.6882   92.0626   10.8582 N.3     1  UNL1       -0.2702
     39 C          64.5318   92.0221   12.3495 C.3     1  UNL1        0.0897
     40 C          65.8118   92.8427   10.2428 C.3     1  UNL1        0.0897
@<TRIPOS>BOND
     1    13    14    1
     2    14     2    1
     3     2     3   ar
     4     3     4   ar
     5     4     5   ar
     6     5     6   ar
     7     6     7   ar
     8     7     8    1
     9     7     9   ar
    10     9    10   ar
    11    10    11   ar
    12    11    12   ar
    13     1    12    1
    14     1    15    1
    15    15    16   ar
    16    16    17   ar
    17    17    18   ar
    18    18    19   ar
    19    19    21    1
    20    21    22    1
    21    19    20   ar
    22    20    23    1
    23    23    24    1
    24     1    25    1
    25    25    26    1
    26    25    36    1
    27    36    37    1
    28    37    38    1
    29    38    39    1
    30    38    40    1
    31    25    28    1
    32    28    29   ar
    33    29    30   ar
    34    30    31   ar
    35    31    32   ar
    36    32    34    1
    37    34    35    3
    38    32    33   ar
    39    12     2   ar
    40    20    15   ar
    41    33    28   ar
    42    10     4   ar
    43    26    27    1
@<TRIPOS>MOLECULE
*****
 40 43 0 0 0
SMALL
GASTEIGER

@<TRIPOS>ATOM
      1 C          62.3617   89.3108   12.3059 C.3     1  UNL1        0.0808
      2 C          63.4360   87.7205   14.0572 C.ar    1  UNL1        0.2211
      3 N          63.9338   86.3591   14.4428 N.ar    1  UNL1       -0.2119
      4 C          63.8552   85.2264   13.4625 C.ar    1  UNL1        0.0844
      5 C          64.3531   83.8650   13.8480 C.ar    1  UNL1        0.0197
      6 C          64.2745   82.7323   12.8677 C.ar    1  UNL1        0.0082
      7 C          63.6981   82.9611   11.5019 C.ar    1  UNL1        0.0347
      8 BR         63.6195   81.8285   10.5217 Br      1  UNL1       -0.0490
      9 C          63.2002   84.3226   11.1164 C.ar    1  UNL1        0.0082
     10 C          63.2788   85.4552   12.0967 C.ar    1  UNL1        0.0181
     11 C          62.7810   86.8167   11.7112 C.ar    1  UNL1        0.0023
     12 C          62.8596   87.9493   12.6914 C.ar    1  UNL1        0.0375
     13 C          63.1947   88.6168   16.4838 C.3     1  UNL1        0.2542
     14 O          63.5146   88.8532   15.0375 O.3     1  UNL1       -0.4563
     15 C          63.3233   90.3463   11.8028 C.ar    1  UNL1        0.0245
     16 C          63.5850   90.4748   10.3313 C.ar    1  UNL1        0.0200
     17 C          64.5466   91.5103    9.8282 C.ar    1  UNL1        0.1019
     18 N          65.2465   92.4172   10.7966 N.ar    1  UNL1       -0.2076
     19 C          64.9848   92.2886   12.2679 C.ar    1  UNL1        0.2598
     20 C          64.0232   91.2532   12.7710 C.ar    1  UNL1        0.1879
     21 O          65.6848   93.1956   13.2362 O.3     1  UNL1       -0.4541
     22 C          66.4280   94.3981   12.7345 C.3     1  UNL1        0.2543
     23 O          63.7616   91.1246   14.2424 O.3     1  UNL1       -0.4670
     24 C          64.8253   91.5047   15.2294 C.3     1  UNL1        0.2527
     25 C          60.9023   89.6368   12.4234 C.3     1  UNL1        0.1159
     26 O          61.0874   89.9400   13.8807 O.3     1  UNL1       -0.3820
     27 H          61.7101   90.6769   13.9811 H       1  UNL1        0.2107
     28 C          60.7172   89.3335   10.9662 C.ar    1  UNL1        0.0030
     29 C          60.1213   90.3655   10.0551 C.ar    1  UNL1       -0.0020
     30 C          59.9362   90.0623    8.5978 C.ar    1  UNL1        0.0004
     31 C          60.3470   88.7271    8.0515 C.ar    1  UNL1        0.0103
     32 C          60.9429   87.6951    8.9625 C.ar    1  UNL1        0.0682
     33 C          61.1280   87.9983   10.4198 C.ar    1  UNL1        0.0083
     34 C          61.3537   86.3598    8.4161 C.1     1  UNL1        0.1004
     35 N          61.7644   85.0247    7.8697 N.1     1  UNL1       -0.1908
     36 C          59.4429   89.9627   12.5410 C.3     1  UNL1        0.0491
     37 C          58.4161   88.8865   12.3474 C.3     1  UNL1        0.0750
     38 N          57.6836   88.3271   13.5308 N.3     1  UNL1       -0.2702
     39 C          56.2446   87.9244   13.4005 C.3     1  UNL1        0.0897
     40 C          58.3902   88.1703   14.8446 C.3     1  UNL1        0.0897
@<TRIPOS>BOND
     1    13    14    1
     2    14     2    1
     3     2     3   ar
     4     3     4   ar
     5     4     5   ar
     6     5     6   ar
     7     6     7   ar
     8     7     8    1
     9     7     9   ar
    10     9    10   ar
    11    10    11   ar
    12    11    12   ar
    13     1    12    1
    14     1    15    1
    15    15    16   ar
    16    16    17   ar
    17    17    18   ar
    18    18    19   ar
    19    19    21    1
    20    21    22    1
    21    19    20   ar
    22    20    23    1
    23    23    24    1
    24     1    25    1
    25    25    26    1
    26    25    36    1
    27    36    37    1
    28    37    38    1
    29    38    39    1
    30    38    40    1
    31    25    28    1
    32    28    29   ar
    33    29    30   ar
    34    30    31   ar
    35    31    32   ar
    36    32    34    1
    37    34    35    3
    38    32    33   ar
    39    12     2   ar
    40    20    15   ar
    41    33    28   ar
    42    10     4   ar
    43    26    27    1
@<TRIPOS>MOLECULE
*****
 40 43 0 0 0
SMALL
GASTEIGER

@<TRIPOS>ATOM
      1 C          63.0417   89.4866   13.0082 C.3     1  UNL1        0.0808
      2 C          60.7304   88.8297   12.0200 C.ar    1  UNL1        0.2211
      3 N          59.9165   88.0905   10.9995 N.ar    1  UNL1       -0.2119
      4 C          60.6000   87.2693    9.9468 C.ar    1  UNL1        0.0844
      5 C          59.7862   86.5302    8.9263 C.ar    1  UNL1        0.0197
      6 C          60.4697   85.7089    7.8735 C.ar    1  UNL1        0.0082
      7 C          61.9671   85.6268    7.8412 C.ar    1  UNL1        0.0347
      8 BR         62.6506   84.8055    6.7884 Br      1  UNL1       -0.0490
      9 C          62.7810   86.3659    8.8617 C.ar    1  UNL1        0.0082
     10 C          62.0975   87.1871    9.9145 C.ar    1  UNL1        0.0181
     11 C          62.9113   87.9262   10.9349 C.ar    1  UNL1        0.0023
     12 C          62.2278   88.7475   11.9877 C.ar    1  UNL1        0.0375
     13 C          58.6874   89.2548   13.5677 C.3     1  UNL1        0.2542
     14 O          60.0469   89.6509   13.0728 O.3     1  UNL1       -0.4563
     15 C          64.0064   90.5490   12.5717 C.ar    1  UNL1        0.0245
     16 C          64.0306   90.9980   11.1406 C.ar    1  UNL1        0.0200
     17 C          64.9953   92.0604   10.7040 C.ar    1  UNL1        0.1019
     18 N          65.9358   92.6739   11.6986 N.ar    1  UNL1       -0.2076
     19 C          65.9116   92.2250   13.1296 C.ar    1  UNL1        0.2598
     20 C          64.9469   91.1626   13.5661 C.ar    1  UNL1        0.1879
     21 O          66.8521   92.8385   14.1241 O.3     1  UNL1       -0.4541
     22 C          68.1518   92.1614   14.4439 C.3     1  UNL1        0.2543
     23 O          64.9227   90.7136   14.9972 O.3     1  UNL1       -0.4670
     24 C          64.8162   91.7259   16.0991 C.3     1  UNL1        0.2527
     25 C          62.8909   89.1632   14.4651 C.3     1  UNL1        0.1159
     26 O          62.1948   90.4738   14.6839 O.3     1  UNL1       -0.3820
     27 H          61.3822   90.5005   14.1550 H       1  UNL1        0.2107
     28 C          63.5870   87.8527   14.2463 C.ar    1  UNL1        0.0030
     29 C          64.8823   87.5655   14.9461 C.ar    1  UNL1       -0.0020
     30 C          65.5784   86.2548   14.7272 C.ar    1  UNL1        0.0004
     31 C          64.9792   85.2316   13.8086 C.ar    1  UNL1        0.0103
     32 C          63.6839   85.5188   13.1089 C.ar    1  UNL1        0.0682
     33 C          62.9878   86.8294   13.3277 C.ar    1  UNL1        0.0083
     34 C          63.0846   84.4955   12.1903 C.1     1  UNL1        0.1004
     35 N          62.4854   83.4722   11.2717 N.1     1  UNL1       -0.1908
     36 C          62.7401   88.8399   15.9220 C.3     1  UNL1        0.0491
     37 C          61.7670   87.7855   16.3595 C.3     1  UNL1        0.0750
     38 N          62.2473   86.6008   17.1443 N.3     1  UNL1       -0.2702
     39 C          62.7262   86.7796   18.5545 C.3     1  UNL1        0.0897
     40 C          62.2486   85.2375   16.5189 C.3     1  UNL1        0.0897
@<TRIPOS>BOND
     1    13    14    1
     2    14     2    1
     3     2     3   ar
     4     3     4   ar
     5     4     5   ar
     6     5     6   ar
     7     6     7   ar
     8     7     8    1
     9     7     9   ar
    10     9    10   ar
    11    10    11   ar
    12    11    12   ar
    13     1    12    1
    14     1    15    1
    15    15    16   ar
    16    16    17   ar
    17    17    18   ar
    18    18    19   ar
    19    19    21    1
    20    21    22    1
    21    19    20   ar
    22    20    23    1
    23    23    24    1
    24     1    25    1
    25    25    26    1
    26    25    36    1
    27    36    37    1
    28    37    38    1
    29    38    39    1
    30    38    40    1
    31    25    28    1
    32    28    29   ar
    33    29    30   ar
    34    30    31   ar
    35    31    32   ar
    36    32    34    1
    37    34    35    3
    38    32    33   ar
    39    12     2   ar
    40    20    15   ar
    41    33    28   ar
    42    10     4   ar
    43    26    27    1
@<TRIPOS>MOLECULE
*****
 40 43 0 0 0
SMALL
GASTEIGER

@<TRIPOS>ATOM
      1 C          63.3175   89.4063   13.4622 C.3     1  UNL1        0.0808
      2 C          60.9774   88.9817   12.4165 C.ar    1  UNL1        0.2211
      3 N          60.1229   88.3513   11.3569 N.ar    1  UNL1       -0.2119
      4 C          60.7542   87.5152   10.2835 C.ar    1  UNL1        0.0844
      5 C          59.8999   86.8849    9.2239 C.ar    1  UNL1        0.0197
      6 C          60.5312   86.0488    8.1505 C.ar    1  UNL1        0.0082
      7 C          62.0169   85.8430    8.1365 C.ar    1  UNL1        0.0347
      8 BR         62.6483   85.0069    7.0631 Br      1  UNL1       -0.0490
      9 C          62.8714   86.4734    9.1961 C.ar    1  UNL1        0.0082
     10 C          62.2400   87.3095   10.2696 C.ar    1  UNL1        0.0181
     11 C          63.0944   87.9398   11.3291 C.ar    1  UNL1        0.0023
     12 C          62.4631   88.7759   12.4026 C.ar    1  UNL1        0.0375
     13 C          59.1631   89.2947   14.2497 C.3     1  UNL1        0.2542
     14 O          60.3460   89.8178   13.4900 O.3     1  UNL1       -0.4563
     15 C          64.3541   90.4223   13.0836 C.ar    1  UNL1        0.0245
     16 C          65.6430   90.4991   13.8471 C.ar    1  UNL1        0.0200
     17 C          66.6795   91.5151   13.4685 C.ar    1  UNL1        0.1019
     18 N          66.4271   92.4544   12.3264 N.ar    1  UNL1       -0.2076
     19 C          65.1382   92.3775   11.5630 C.ar    1  UNL1        0.2598
     20 C          64.1017   91.3615   11.9416 C.ar    1  UNL1        0.1879
     21 O          64.8858   93.3167   10.4210 O.3     1  UNL1       -0.4541
     22 C          65.7559   94.5247   10.2371 C.3     1  UNL1        0.2543
     23 O          62.8128   91.2846   11.1782 O.3     1  UNL1       -0.4670
     24 C          62.8314   91.0481    9.6970 C.3     1  UNL1        0.2527
     25 C          63.1355   89.0206   14.9002 C.3     1  UNL1        0.1159
     26 O          62.4871   90.3453   15.1734 O.3     1  UNL1       -0.3820
     27 H          61.6831   90.4285   14.6372 H       1  UNL1        0.2107
     28 C          63.7838   87.6958   14.6270 C.ar    1  UNL1        0.0030
     29 C          65.0899   87.3513   15.2792 C.ar    1  UNL1       -0.0020
     30 C          65.7382   86.0265   15.0060 C.ar    1  UNL1        0.0004
     31 C          65.0804   85.0463   14.0805 C.ar    1  UNL1        0.0103
     32 C          63.7743   85.3908   13.4283 C.ar    1  UNL1        0.0682
     33 C          63.1260   86.7156   13.7015 C.ar    1  UNL1        0.0083
     34 C          63.1166   84.4106   12.5028 C.1     1  UNL1        0.1004
     35 N          62.4589   83.4303   11.5773 N.1     1  UNL1       -0.1908
     36 C          62.9534   88.6349   16.3383 C.3     1  UNL1        0.0491
     37 C          61.8864   87.6530   16.7221 C.3     1  UNL1        0.0750
     38 N          62.2570   86.3758   17.4162 N.3     1  UNL1       -0.2702
     39 C          62.1130   85.0649   16.7017 C.3     1  UNL1        0.0897
     40 C          62.7716   86.4097   18.8247 C.3     1  UNL1        0.0897
@<TRIPOS>BOND
     1    13    14    1
     2    14     2    1
     3     2     3   ar
     4     3     4   ar
     5     4     5   ar
     6     5     6   ar
     7     6     7   ar
     8     7     8    1
     9     7     9   ar
    10     9    10   ar
    11    10    11   ar
    12    11    12   ar
    13     1    12    1
    14     1    15    1
    15    15    16   ar
    16    16    17   ar
    17    17    18   ar
    18    18    19   ar
    19    19    21    1
    20    21    22    1
    21    19    20   ar
    22    20    23    1
    23    23    24    1
    24     1    25    1
    25    25    26    1
    26    25    36    1
    27    36    37    1
    28    37    38    1
    29    38    39    1
    30    38    40    1
    31    25    28    1
    32    28    29   ar
    33    29    30   ar
    34    30    31   ar
    35    31    32   ar
    36    32    34    1
    37    34    35    3
    38    32    33   ar
    39    12     2   ar
    40    20    15   ar
    41    33    28   ar
    42    10     4   ar
    43    26    27    1
@<TRIPOS>MOLECULE
*****
 40 43 0 0 0
SMALL
GASTEIGER

@<TRIPOS>ATOM
      1 C          62.8649   88.3199   12.7079 C.3     1  UNL1        0.0808
      2 C          63.4957   90.4602   11.3770 C.ar    1  UNL1        0.2211
      3 N          64.2685   91.7412   11.2674 N.ar    1  UNL1       -0.2119
      4 C          65.1832   92.1628   12.3789 C.ar    1  UNL1        0.0844
      5 C          65.9559   93.4437   12.2693 C.ar    1  UNL1        0.0197
      6 C          66.8706   93.8653   13.3809 C.ar    1  UNL1        0.0082
      7 C          67.0125   93.0060   14.6021 C.ar    1  UNL1        0.0347
      8 BR         67.9272   93.4276   15.7137 Br      1  UNL1       -0.0490
      9 C          66.2398   91.7250   14.7118 C.ar    1  UNL1        0.0082
     10 C          65.3251   91.3034   13.6002 C.ar    1  UNL1        0.0181
     11 C          64.5524   90.0225   13.7098 C.ar    1  UNL1        0.0023
     12 C          63.6377   89.6009   12.5982 C.ar    1  UNL1        0.0375
     13 C          62.2813   90.9852    9.1410 C.3     1  UNL1        0.2542
     14 O          62.5810   90.0386   10.2655 O.3     1  UNL1       -0.4563
     15 C          63.4095   87.1827   13.5206 C.ar    1  UNL1        0.0245
     16 C          64.1306   86.0549   12.8436 C.ar    1  UNL1        0.0200
     17 C          64.6751   84.9178   13.6563 C.ar    1  UNL1        0.1019
     18 N          64.4985   84.9085   15.1459 N.ar    1  UNL1       -0.2076
     19 C          63.7775   86.0362   15.8227 C.ar    1  UNL1        0.2598
     20 C          63.2329   87.1734   15.0101 C.ar    1  UNL1        0.1879
     21 O          63.6009   86.0269   17.3122 O.3     1  UNL1       -0.4541
     22 C          62.2566   86.3191   17.9100 C.3     1  UNL1        0.2543
     23 O          62.5118   88.3011   15.6869 O.3     1  UNL1       -0.4670
     24 C          63.2857   89.3377   16.4464 C.3     1  UNL1        0.2527
     25 C          61.5477   88.1760   12.0049 C.3     1  UNL1        0.1159
     26 O          61.0062   89.3394   12.7816 O.3     1  UNL1       -0.3820
     27 H          61.5259   90.1331   12.5795 H       1  UNL1        0.2107
     28 C          62.0893   87.0127   11.2282 C.ar    1  UNL1        0.0030
     29 C          62.7177   87.2352    9.8845 C.ar    1  UNL1       -0.0020
     30 C          63.2593   86.0718    9.1079 C.ar    1  UNL1        0.0004
     31 C          63.1724   84.6858    9.6749 C.ar    1  UNL1        0.0103
     32 C          62.5439   84.4632   11.0186 C.ar    1  UNL1        0.0682
     33 C          62.0023   85.6266   11.7952 C.ar    1  UNL1        0.0083
     34 C          62.4570   83.0772   11.5855 C.1     1  UNL1        0.1004
     35 N          62.3701   81.6912   12.1525 N.1     1  UNL1       -0.1908
     36 C          60.2305   88.0322   11.3019 C.3     1  UNL1        0.0491
     37 C          59.9099   88.9037   10.1239 C.3     1  UNL1        0.0750
     38 N          59.6276   88.2842    8.7873 N.3     1  UNL1       -0.2702
     39 C          59.6201   89.1357    7.5525 C.3     1  UNL1        0.0897
     40 C          59.3529   86.8131    8.6856 C.3     1  UNL1        0.0897
@<TRIPOS>BOND
     1    13    14    1
     2    14     2    1
     3     2     3   ar
     4     3     4   ar
     5     4     5   ar
     6     5     6   ar
     7     6     7   ar
     8     7     8    1
     9     7     9   ar
    10     9    10   ar
    11    10    11   ar
    12    11    12   ar
    13     1    12    1
    14     1    15    1
    15    15    16   ar
    16    16    17   ar
    17    17    18   ar
    18    18    19   ar
    19    19    21    1
    20    21    22    1
    21    19    20   ar
    22    20    23    1
    23    23    24    1
    24     1    25    1
    25    25    26    1
    26    25    36    1
    27    36    37    1
    28    37    38    1
    29    38    39    1
    30    38    40    1
    31    25    28    1
    32    28    29   ar
    33    29    30   ar
    34    30    31   ar
    35    31    32   ar
    36    32    34    1
    37    34    35    3
    38    32    33   ar
    39    12     2   ar
    40    20    15   ar
    41    33    28   ar
    42    10     4   ar
    43    26    27    1
@<TRIPOS>MOLECULE
*****
 40 43 0 0 0
SMALL
GASTEIGER

@<TRIPOS>ATOM
      1 C          61.9941   88.0010   11.1855 C.3     1  UNL1        0.0808
      2 C          63.6429   88.9123   12.9747 C.ar    1  UNL1        0.2211
      3 N          64.6033   89.9669   13.4389 N.ar    1  UNL1       -0.2119
      4 C          64.8754   91.1648   12.5781 C.ar    1  UNL1        0.0844
      5 C          65.8358   92.2194   13.0422 C.ar    1  UNL1        0.0197
      6 C          66.1078   93.4173   12.1814 C.ar    1  UNL1        0.0082
      7 C          65.4195   93.5606   10.8564 C.ar    1  UNL1        0.0347
      8 BR         65.6916   94.7585    9.9956 Br      1  UNL1       -0.0490
      9 C          64.4591   92.5060   10.3922 C.ar    1  UNL1        0.0082
     10 C          64.1870   91.3081   11.2530 C.ar    1  UNL1        0.0181
     11 C          63.2266   90.2535   10.7889 C.ar    1  UNL1        0.0023
     12 C          62.9546   89.0556   11.6497 C.ar    1  UNL1        0.0375
     13 C          64.4015   87.2496   14.8213 C.3     1  UNL1        0.2542
     14 O          63.3708   87.7144   13.8355 O.3     1  UNL1       -0.4563
     15 C          62.5102   86.7437   10.5508 C.ar    1  UNL1        0.0245
     16 C          63.0406   86.7747    9.1480 C.ar    1  UNL1        0.0200
     17 C          63.5566   85.5174    8.5133 C.ar    1  UNL1        0.1019
     18 N          63.5423   84.2290    9.2815 N.ar    1  UNL1       -0.2076
     19 C          63.0119   84.1980   10.6842 C.ar    1  UNL1        0.2598
     20 C          62.4959   85.4554   11.3189 C.ar    1  UNL1        0.1879
     21 O          62.9976   82.9097   11.4523 O.3     1  UNL1       -0.4541
     22 C          63.2698   81.6136   10.7480 C.3     1  UNL1        0.2543
     23 O          61.9655   85.4244   12.7216 O.3     1  UNL1       -0.4670
     24 C          62.5108   84.4345   13.7080 C.3     1  UNL1        0.2527
     25 C          60.5177   88.2038   11.3559 C.3     1  UNL1        0.1159
     26 O          60.7015   88.2929   12.8419 O.3     1  UNL1       -0.3820
     27 H          61.2742   89.0470   13.0523 H       1  UNL1        0.2107
     28 C          60.3339   88.1147    9.8699 C.ar    1  UNL1        0.0030
     29 C          60.0343   89.3515    9.0758 C.ar    1  UNL1       -0.0020
     30 C          59.8505   89.2623    7.5897 C.ar    1  UNL1        0.0004
     31 C          59.9663   87.9365    6.8979 C.ar    1  UNL1        0.0103
     32 C          60.2659   86.6997    7.6920 C.ar    1  UNL1        0.0682
     33 C          60.4497   86.7888    9.1780 C.ar    1  UNL1        0.0083
     34 C          60.3817   85.3739    7.0001 C.1     1  UNL1        0.1004
     35 N          60.4975   84.0480    6.3082 N.1     1  UNL1       -0.1908
     36 C          59.0413   88.4065   11.5264 C.3     1  UNL1        0.0491
     37 C          58.5293   89.6120   12.2576 C.3     1  UNL1        0.0750
     38 N          58.9399   90.9862   11.8182 N.3     1  UNL1       -0.2702
     39 C          60.3797   91.2776   11.5147 C.3     1  UNL1        0.0897
     40 C          57.9108   92.0689   11.6824 C.3     1  UNL1        0.0897
@<TRIPOS>BOND
     1    13    14    1
     2    14     2    1
     3     2     3   ar
     4     3     4   ar
     5     4     5   ar
     6     5     6   ar
     7     6     7   ar
     8     7     8    1
     9     7     9   ar
    10     9    10   ar
    11    10    11   ar
    12    11    12   ar
    13     1    12    1
    14     1    15    1
    15    15    16   ar
    16    16    17   ar
    17    17    18   ar
    18    18    19   ar
    19    19    21    1
    20    21    22    1
    21    19    20   ar
    22    20    23    1
    23    23    24    1
    24     1    25    1
    25    25    26    1
    26    25    36    1
    27    36    37    1
    28    37    38    1
    29    38    39    1
    30    38    40    1
    31    25    28    1
    32    28    29   ar
    33    29    30   ar
    34    30    31   ar
    35    31    32   ar
    36    32    34    1
    37    34    35    3
    38    32    33   ar
    39    12     2   ar
    40    20    15   ar
    41    33    28   ar
    42    10     4   ar
    43    26    27    1
@<TRIPOS>MOLECULE
*****
 40 43 0 0 0
SMALL
GASTEIGER

@<TRIPOS>ATOM
      1 C          63.0461   88.7577   11.9068 C.3     1  UNL1        0.0808
      2 C          60.6398   88.4248   10.9855 C.ar    1  UNL1        0.2211
      3 N          59.7036   87.8033    9.9917 N.ar    1  UNL1       -0.2119
      4 C          60.2377   86.8933    8.9256 C.ar    1  UNL1        0.0844
      5 C          59.3016   86.2718    7.9319 C.ar    1  UNL1        0.0197
      6 C          59.8357   85.3618    6.8658 C.ar    1  UNL1        0.0082
      7 C          61.3058   85.0732    6.7934 C.ar    1  UNL1        0.0347
      8 BR         61.8399   84.1632    5.7273 Br      1  UNL1       -0.0490
      9 C          62.2420   85.6947    7.7872 C.ar    1  UNL1        0.0082
     10 C          61.7079   86.6047    8.8533 C.ar    1  UNL1        0.0181
     11 C          62.6440   87.2262    9.8470 C.ar    1  UNL1        0.0023
     12 C          62.1099   88.1362   10.9131 C.ar    1  UNL1        0.0375
     13 C          59.3222   90.5563   11.6717 C.3     1  UNL1        0.2542
     14 O          60.1057   89.3348   12.0516 O.3     1  UNL1       -0.4563
     15 C          63.6332   87.9242   13.0071 C.ar    1  UNL1        0.0245
     16 C          64.6690   88.5097   13.9205 C.ar    1  UNL1        0.0200
     17 C          65.2561   87.6762   15.0208 C.ar    1  UNL1        0.1019
     18 N          64.8073   86.2572   15.2077 N.ar    1  UNL1       -0.2076
     19 C          63.7714   85.6717   14.2944 C.ar    1  UNL1        0.2598
     20 C          63.1844   86.5052   13.1941 C.ar    1  UNL1        0.1879
     21 O          63.3227   84.2527   14.4813 O.3     1  UNL1       -0.4541
     22 C          62.1657   83.9448   15.3850 C.3     1  UNL1        0.2543
     23 O          62.1486   85.9197   12.2807 O.3     1  UNL1       -0.4670
     24 C          62.3579   84.5598   11.6833 C.3     1  UNL1        0.2527
     25 C          63.3952   90.2126   11.8002 C.3     1  UNL1        0.1159
     26 O          63.4156   90.0981   10.3048 O.3     1  UNL1       -0.3820
     27 H          62.5374   89.8342    9.9886 H       1  UNL1        0.2107
     28 C          63.3747   90.3270   13.2957 C.ar    1  UNL1        0.0030
     29 C          62.3072   89.6308   14.0866 C.ar    1  UNL1       -0.0020
     30 C          62.2867   89.7453   15.5822 C.ar    1  UNL1        0.0004
     31 C          63.3338   90.5560   16.2867 C.ar    1  UNL1        0.0103
     32 C          64.4013   91.2523   15.4957 C.ar    1  UNL1        0.0682
     33 C          64.4218   91.1378   14.0002 C.ar    1  UNL1        0.0083
     34 C          65.4484   92.0630   16.2003 C.1     1  UNL1        0.1004
     35 N          66.4954   92.8738   16.9048 N.1     1  UNL1       -0.1908
     36 C          63.7442   91.6674   11.6936 C.3     1  UNL1        0.0491
     37 C          64.6558   92.1419   10.6010 C.3     1  UNL1        0.0750
     38 N          65.9724   92.7737   10.9441 N.3     1  UNL1       -0.2702
     39 C          66.0633   93.7469   12.0820 C.3     1  UNL1        0.0897
     40 C          67.1979   92.4323   10.1495 C.3     1  UNL1        0.0897
@<TRIPOS>BOND
     1    13    14    1
     2    14     2    1
     3     2     3   ar
     4     3     4   ar
     5     4     5   ar
     6     5     6   ar
     7     6     7   ar
     8     7     8    1
     9     7     9   ar
    10     9    10   ar
    11    10    11   ar
    12    11    12   ar
    13     1    12    1
    14     1    15    1
    15    15    16   ar
    16    16    17   ar
    17    17    18   ar
    18    18    19   ar
    19    19    21    1
    20    21    22    1
    21    19    20   ar
    22    20    23    1
    23    23    24    1
    24     1    25    1
    25    25    26    1
    26    25    36    1
    27    36    37    1
    28    37    38    1
    29    38    39    1
    30    38    40    1
    31    25    28    1
    32    28    29   ar
    33    29    30   ar
    34    30    31   ar
    35    31    32   ar
    36    32    34    1
    37    34    35    3
    38    32    33   ar
    39    12     2   ar
    40    20    15   ar
    41    33    28   ar
    42    10     4   ar
    43    26    27    1
@<TRIPOS>MOLECULE
*****
 40 43 0 0 0
SMALL
GASTEIGER

@<TRIPOS>ATOM
      1 C          62.6193   89.0216   11.7811 C.3     1  UNL1        0.0808
      2 C          63.8953   90.4744   13.5165 C.ar    1  UNL1        0.2211
      3 N          64.7778   91.6457   13.8320 N.ar    1  UNL1       -0.2119
      4 C          65.2666   92.5354   12.7277 C.ar    1  UNL1        0.0844
      5 C          66.1490   93.7067   13.0432 C.ar    1  UNL1        0.0197
      6 C          66.6377   94.5964   11.9389 C.ar    1  UNL1        0.0082
      7 C          66.2441   94.3149   10.5192 C.ar    1  UNL1        0.0347
      8 BR         66.7329   95.2047    9.4149 Br      1  UNL1       -0.0490
      9 C          65.3617   93.1436   10.2036 C.ar    1  UNL1        0.0082
     10 C          64.8729   92.2539   11.3079 C.ar    1  UNL1        0.0181
     11 C          63.9905   91.0827   10.9924 C.ar    1  UNL1        0.0023
     12 C          63.5017   90.1929   12.0967 C.ar    1  UNL1        0.0375
     13 C          63.5429   90.0192   16.0500 C.3     1  UNL1        0.2542
     14 O          63.4066   89.5847   14.6208 O.3     1  UNL1       -0.4563
     15 C          62.9677   87.6586   12.3014 C.ar    1  UNL1        0.0245
     16 C          63.7635   87.5190   13.5652 C.ar    1  UNL1        0.0200
     17 C          64.1118   86.1559   14.0855 C.ar    1  UNL1        0.1019
     18 N          63.6643   84.9324   13.3419 N.ar    1  UNL1       -0.2076
     19 C          62.8686   85.0720   12.0781 C.ar    1  UNL1        0.2598
     20 C          62.5202   86.4351   11.5579 C.ar    1  UNL1        0.1879
     21 O          62.4211   83.8485   11.3346 O.3     1  UNL1       -0.4541
     22 C          62.7857   82.4858   11.8445 C.3     1  UNL1        0.2543
     23 O          61.7244   86.5747   10.2941 O.3     1  UNL1       -0.4670
     24 C          62.3045   86.1183    8.9882 C.3     1  UNL1        0.2527
     25 C          61.3886   89.2135   10.9454 C.3     1  UNL1        0.1159
     26 O          62.2385   89.2925    9.7120 O.3     1  UNL1       -0.3820
     27 H          62.7201   88.4584    9.5972 H       1  UNL1        0.2107
     28 C          60.5387   89.1344   12.1788 C.ar    1  UNL1        0.0030
     29 C          61.1346   89.4398   13.5211 C.ar    1  UNL1       -0.0020
     30 C          60.2845   89.3608   14.7545 C.ar    1  UNL1        0.0004
     31 C          58.8388   88.9763   14.6456 C.ar    1  UNL1        0.0103
     32 C          58.2429   88.6710   13.3034 C.ar    1  UNL1        0.0682
     33 C          59.0928   88.7500   12.0700 C.ar    1  UNL1        0.0083
     34 C          56.7971   88.2865   13.1945 C.1     1  UNL1        0.1004
     35 N          55.3513   87.9020   13.0857 N.1     1  UNL1       -0.1908
     36 C          60.1579   89.4053   10.1096 C.3     1  UNL1        0.0491
     37 C          60.2851   89.7535    8.6561 C.3     1  UNL1        0.0750
     38 N          59.5548   88.9454    7.6247 N.3     1  UNL1       -0.2702
     39 C          59.1442   87.5353    7.9294 C.3     1  UNL1        0.0897
     40 C          59.2352   89.5475    6.2886 C.3     1  UNL1        0.0897
@<TRIPOS>BOND
     1    13    14    1
     2    14     2    1
     3     2     3   ar
     4     3     4   ar
     5     4     5   ar
     6     5     6   ar
     7     6     7   ar
     8     7     8    1
     9     7     9   ar
    10     9    10   ar
    11    10    11   ar
    12    11    12   ar
    13     1    12    1
    14     1    15    1
    15    15    16   ar
    16    16    17   ar
    17    17    18   ar
    18    18    19   ar
    19    19    21    1
    20    21    22    1
    21    19    20   ar
    22    20    23    1
    23    23    24    1
    24     1    25    1
    25    25    26    1
    26    25    36    1
    27    36    37    1
    28    37    38    1
    29    38    39    1
    30    38    40    1
    31    25    28    1
    32    28    29   ar
    33    29    30   ar
    34    30    31   ar
    35    31    32   ar
    36    32    34    1
    37    34    35    3
    38    32    33   ar
    39    12     2   ar
    40    20    15   ar
    41    33    28   ar
    42    10     4   ar
    43    26    27    1
