@<TRIPOS>MOLECULE
*****
 36 39 0 0 0
SMALL
GASTEIGER

@<TRIPOS>ATOM
      1 N          63.0228   90.8703   11.7181 N.am    1  UNL1       -0.2438
      2 C          63.5542   91.4932   10.4613 C.3     1  UNL1        0.1009
      3 C          64.7495   92.3976   10.5197 C.3     1  UNL1        0.0662
      4 C          65.4134   92.6791   11.8350 C.3     1  UNL1        0.1600
      5 O          64.8820   92.0563   13.0918 O.3     1  UNL1       -0.4374
      6 C          63.6867   91.1518   13.0334 C.2     1  UNL1        0.4051
      7 O          63.1554   90.5290   14.2903 O.2     1  UNL1       -0.2262
      8 C          66.2798   93.4985   10.9251 C.ar    1  UNL1        0.0138
      9 C          67.1891   92.8204    9.9438 C.ar    1  UNL1       -0.0010
     10 C          68.0556   93.6399    9.0339 C.ar    1  UNL1       -0.0002
     11 C          68.0126   95.1375    9.1055 C.ar    1  UNL1       -0.0000
     12 C          67.1033   95.8157   10.0869 C.ar    1  UNL1       -0.0002
     13 C          66.2368   94.9963   10.9967 C.ar    1  UNL1       -0.0010
     14 C          61.8276   89.9659   11.6597 C.3     1  UNL1        0.1011
     15 C          60.4485   90.5500   11.5756 C.3     1  UNL1        0.0265
     16 C          62.3790   85.5005   11.7366 C.ar    1  UNL1        0.0190
     17 C          61.2429   86.1027   10.9641 C.ar    1  UNL1        0.0013
     18 C          61.0591   87.5912   10.9385 C.ar    1  UNL1       -0.0026
     19 C          62.0114   88.4775   11.6854 C.ar    1  UNL1       -0.0042
     20 C          63.1474   87.8753   12.4578 C.ar    1  UNL1       -0.0026
     21 C          63.3312   86.3867   12.4835 C.ar    1  UNL1        0.0013
     22 C          63.6918   84.1111    9.4244 C.3     1  UNL1        0.0328
     23 C          63.2191   83.3173   10.6061 C.ar    1  UNL1        0.0023
     24 C          63.4029   81.8289   10.6318 C.ar    1  UNL1        0.0595
     25 C          62.9303   81.0351   11.8135 C.ar    1  UNL1        0.2762
     26 O          63.1140   79.5466   11.8392 O.2     1  UNL1       -0.2655
     27 N          62.2739   81.7297   12.9696 N.ar    1  UNL1       -0.2146
     28 C          61.8012   80.9359   14.1514 C.3     1  UNL1        0.1571
     29 N          62.0901   83.2182   12.9440 N.ar    1  UNL1       -0.1671
     30 C          62.5628   84.0120   11.7622 C.ar    1  UNL1        0.0971
     31 C          66.3782   93.2452   12.8342 C.3     1  UNL1        0.0714
     32 C          67.0229   92.3460   13.8470 C.3     1  UNL1        0.0922
     33 C          67.8069   91.6792   12.7558 C.3     1  UNL1        0.0294
     34 C          66.2390   93.0127   14.9382 C.3     1  UNL1        0.0294
     35 O          67.6677   91.4466   14.8598 O.3     1  UNL1       -0.3866
     36 H          68.2847   90.8463   14.4128 H       1  UNL1        0.2102
@<TRIPOS>BOND
     1    22    23    1
     2    23    24   ar
     3    24    25   ar
     4    25    26    2
     5    25    27   ar
     6    27    28    1
     7    27    29   ar
     8    29    30   ar
     9    30    16    1
    10    16    17   ar
    11    17    18   ar
    12    18    19   ar
    13    19    14    1
    14    14    15    1
    15    14     1    1
    16     1     2    1
    17     2     3    1
    18     3     4    1
    19     4    31    1
    20    31    32    1
    21    32    33    1
    22    32    34    1
    23    32    35    1
    24     4     8    1
    25     8     9   ar
    26     9    10   ar
    27    10    11   ar
    28    11    12   ar
    29    12    13   ar
    30     4     5    1
    31     5     6    1
    32     6     7    2
    33    19    20   ar
    34    20    21   ar
    35    30    23   ar
    36    21    16   ar
    37     6     1   am
    38    13     8   ar
    39    35    36    1
@<TRIPOS>MOLECULE
*****
 36 39 0 0 0
SMALL
GASTEIGER

@<TRIPOS>ATOM
      1 N          63.4217   90.5304   12.0107 N.am    1  UNL1       -0.2438
      2 C          64.0907   90.3501   13.3412 C.3     1  UNL1        0.1009
      3 C          65.2868   91.1819   13.6981 C.3     1  UNL1        0.0662
      4 C          65.8140   92.1940   12.7246 C.3     1  UNL1        0.1600
      5 O          65.1451   92.3743   11.3942 O.3     1  UNL1       -0.4374
      6 C          63.9489   91.5425   11.0372 C.2     1  UNL1        0.4051
      7 O          63.2800   91.7228    9.7068 O.2     1  UNL1       -0.2262
      8 C          66.7828   92.3886   13.8530 C.ar    1  UNL1        0.0138
      9 C          68.2429   92.1169   13.6432 C.ar    1  UNL1       -0.0010
     10 C          69.2118   92.3116   14.7717 C.ar    1  UNL1       -0.0002
     11 C          68.7204   92.7780   16.1100 C.ar    1  UNL1       -0.0000
     12 C          67.2603   93.0497   16.3198 C.ar    1  UNL1       -0.0002
     13 C          66.2914   92.8550   15.1914 C.ar    1  UNL1       -0.0010
     14 C          62.2256   89.6986   11.6538 C.3     1  UNL1        0.1011
     15 C          60.9431   90.3635   11.2499 C.3     1  UNL1        0.0265
     16 C          62.4848   85.2083   11.7947 C.ar    1  UNL1        0.0190
     17 C          63.3314   86.0376   12.7142 C.ar    1  UNL1        0.0013
     18 C          63.2450   87.5344   12.6673 C.ar    1  UNL1       -0.0026
     19 C          62.3120   88.2018   11.7008 C.ar    1  UNL1       -0.0042
     20 C          61.4654   87.3725   10.7812 C.ar    1  UNL1       -0.0026
     21 C          61.5518   85.8757   10.8282 C.ar    1  UNL1        0.0013
     22 C          63.8665   83.7155    9.5896 C.3     1  UNL1        0.0328
     23 C          63.2621   82.9651   10.7392 C.ar    1  UNL1        0.0023
     24 C          63.3484   81.4684   10.7862 C.ar    1  UNL1        0.0595
     25 C          62.7440   80.7180   11.9358 C.ar    1  UNL1        0.2762
     26 O          62.8304   79.2211   11.9828 O.2     1  UNL1       -0.2655
     27 N          62.0532   81.4643   13.0383 N.ar    1  UNL1       -0.2146
     28 C          61.4487   80.7139   14.1879 C.3     1  UNL1        0.1571
     29 N          61.9668   82.9610   12.9913 N.ar    1  UNL1       -0.1671
     30 C          62.5712   83.7114   11.8417 C.ar    1  UNL1        0.0971
     31 C          66.6776   93.2737   12.1430 C.3     1  UNL1        0.0714
     32 C          66.5652   93.6220   10.6884 C.3     1  UNL1        0.0922
     33 C          65.7528   94.8326   11.0410 C.3     1  UNL1        0.0294
     34 C          67.3775   92.4114   10.3356 C.3     1  UNL1        0.0294
     35 O          66.4527   93.9704    9.2336 O.3     1  UNL1       -0.3866
     36 H          65.9332   94.7835    9.1351 H       1  UNL1        0.2102
@<TRIPOS>BOND
     1    22    23    1
     2    23    24   ar
     3    24    25   ar
     4    25    26    2
     5    25    27   ar
     6    27    28    1
     7    27    29   ar
     8    29    30   ar
     9    30    16    1
    10    16    17   ar
    11    17    18   ar
    12    18    19   ar
    13    19    14    1
    14    14    15    1
    15    14     1    1
    16     1     2    1
    17     2     3    1
    18     3     4    1
    19     4    31    1
    20    31    32    1
    21    32    33    1
    22    32    34    1
    23    32    35    1
    24     4     8    1
    25     8     9   ar
    26     9    10   ar
    27    10    11   ar
    28    11    12   ar
    29    12    13   ar
    30     4     5    1
    31     5     6    1
    32     6     7    2
    33    19    20   ar
    34    20    21   ar
    35    30    23   ar
    36    21    16   ar
    37     6     1   am
    38    13     8   ar
    39    35    36    1
@<TRIPOS>MOLECULE
*****
 36 39 0 0 0
SMALL
GASTEIGER

@<TRIPOS>ATOM
      1 N          63.0704   90.8504   11.6128 N.am    1  UNL1       -0.2438
      2 C          63.6076   91.5055   10.3749 C.3     1  UNL1        0.1009
      3 C          64.7843   92.4312   10.4666 C.3     1  UNL1        0.0662
      4 C          65.4239   92.7019   11.7961 C.3     1  UNL1        0.1600
      5 O          64.8868   92.0468   13.0340 O.3     1  UNL1       -0.4374
      6 C          63.7100   91.1211   12.9423 C.2     1  UNL1        0.4051
      7 O          63.1729   90.4661   14.1802 O.2     1  UNL1       -0.2262
      8 C          66.2873   93.5536   10.9135 C.ar    1  UNL1        0.0138
      9 C          67.2024   92.9109    9.9139 C.ar    1  UNL1       -0.0010
     10 C          68.0659   93.7628    9.0312 C.ar    1  UNL1       -0.0002
     11 C          68.0140   95.2573    9.1483 C.ar    1  UNL1       -0.0000
     12 C          67.0989   95.9000   10.1480 C.ar    1  UNL1       -0.0002
     13 C          66.2355   95.0482   11.0306 C.ar    1  UNL1       -0.0010
     14 C          61.8937   89.9248   11.5211 C.3     1  UNL1        0.1011
     15 C          60.5329   90.4706   11.2046 C.3     1  UNL1        0.0265
     16 C          62.4462   85.5100   12.1955 C.ar    1  UNL1        0.0190
     17 C          63.3792   86.4901   12.8428 C.ar    1  UNL1        0.0013
     18 C          63.1950   87.9617   12.6180 C.ar    1  UNL1       -0.0026
     19 C          62.0779   88.4532   11.7459 C.ar    1  UNL1       -0.0042
     20 C          61.1450   87.4731   11.0985 C.ar    1  UNL1       -0.0026
     21 C          61.3292   86.0015   11.3234 C.ar    1  UNL1        0.0013
     22 C          62.3104   84.3885   14.9747 C.3     1  UNL1        0.0328
     23 C          62.5625   83.4777   13.8099 C.ar    1  UNL1        0.0023
     24 C          62.7467   82.0061   14.0346 C.ar    1  UNL1        0.0595
     25 C          62.9988   81.0953   12.8698 C.ar    1  UNL1        0.2762
     26 O          63.1830   79.6237   13.0946 O.2     1  UNL1       -0.2655
     27 N          63.0667   81.6560   11.4802 N.ar    1  UNL1       -0.2146
     28 C          63.3188   80.7451   10.3154 C.3     1  UNL1        0.1571
     29 N          62.8825   83.1275   11.2555 N.ar    1  UNL1       -0.1671
     30 C          62.6304   84.0384   12.4203 C.ar    1  UNL1        0.0971
     31 C          66.3633   93.2683   12.8191 C.3     1  UNL1        0.0714
     32 C          67.0043   92.3648   13.8304 C.3     1  UNL1        0.0922
     33 C          67.7875   91.6983   12.7385 C.3     1  UNL1        0.0294
     34 C          66.2212   93.0312   14.9224 C.3     1  UNL1        0.0294
     35 O          67.6455   91.4612   14.8417 O.3     1  UNL1       -0.3866
     36 H          68.2612   90.8601   14.3940 H       1  UNL1        0.2102
@<TRIPOS>BOND
     1    22    23    1
     2    23    24   ar
     3    24    25   ar
     4    25    26    2
     5    25    27   ar
     6    27    28    1
     7    27    29   ar
     8    29    30   ar
     9    30    16    1
    10    16    17   ar
    11    17    18   ar
    12    18    19   ar
    13    19    14    1
    14    14    15    1
    15    14     1    1
    16     1     2    1
    17     2     3    1
    18     3     4    1
    19     4    31    1
    20    31    32    1
    21    32    33    1
    22    32    34    1
    23    32    35    1
    24     4     8    1
    25     8     9   ar
    26     9    10   ar
    27    10    11   ar
    28    11    12   ar
    29    12    13   ar
    30     4     5    1
    31     5     6    1
    32     6     7    2
    33    19    20   ar
    34    20    21   ar
    35    30    23   ar
    36    21    16   ar
    37     6     1   am
    38    13     8   ar
    39    35    36    1
