@<TRIPOS>MOLECULE
*****
 31 35 0 0 0
SMALL
GASTEIGER

@<TRIPOS>ATOM
      1 C          62.3993   87.0817   11.2403 C.2     1  UNL1        0.2411
      2 N          62.6646   88.4787   11.7179 N.2     1  UNL1       -0.0354
      3 C          63.4336   88.3910   13.0028 C.2     1  UNL1        0.3669
      4 N          63.6435   86.9399   13.3194 N.2     1  UNL1       -0.0535
      5 C          63.0043   86.1307   12.2301 C.3     1  UNL1        0.3044
      6 C          62.9752   84.6333   12.1455 C.ar    1  UNL1        0.0536
      7 C          63.5220   83.9399   10.9331 C.ar    1  UNL1        0.0050
      8 C          63.4929   82.4425   10.8485 C.ar    1  UNL1        0.0387
      9 C          62.9169   81.6387   11.9763 C.ar    1  UNL1        0.1656
     10 N          62.7536   80.1608   12.1745 N.ar    1  UNL1       -0.2034
     11 C          62.1058   79.9410   13.5094 C.ar    1  UNL1        0.2213
     12 N          61.8687   81.2830   14.1363 N.ar    1  UNL1       -0.1409
     13 N          62.3700   82.3322   13.1888 N.ar    1  UNL1       -0.2094
     14 C          62.3991   83.8295   13.2733 C.ar    1  UNL1        0.1024
     15 C          62.2956   84.7262    6.6100 C.3     1  UNL1        0.0521
     16 C          61.6071   85.5245    7.6770 C.ar    1  UNL1        0.0595
     17 C          60.1782   85.9436    7.4958 C.ar    1  UNL1        0.0148
     18 C          59.4897   86.7419    8.5628 C.ar    1  UNL1        0.0029
     19 C          60.2301   87.1213    9.8110 C.ar    1  UNL1        0.0227
     20 C          61.6589   86.7023    9.9921 C.ar    1  UNL1        0.1242
     21 N          62.3474   85.9039    8.9251 N.ar    1  UNL1       -0.2461
     22 C          63.9092   89.5508   13.8266 C.3     1  UNL1        0.2125
     23 N          63.5843   90.9533   13.4053 N.pl3   1  UNL1       -0.3208
     24 H          62.7008   91.3365   13.6097 H       1  UNL1        0.1474
     25 C          64.6056   91.7720   12.6727 C.ar    1  UNL1        0.0729
     26 C          65.7444   92.3967   13.4229 C.ar    1  UNL1        0.0166
     27 C          66.7659   93.2154   12.6903 C.ar    1  UNL1        0.0014
     28 C          66.6483   93.4094   11.2076 C.ar    1  UNL1        0.0024
     29 C          65.5094   92.7847   10.4574 C.ar    1  UNL1        0.0309
     30 C          64.4881   91.9660   11.1899 C.ar    1  UNL1        0.1531
     31 F          63.3493   91.3413   10.4398 F       1  UNL1       -0.2029
@<TRIPOS>BOND
     1    15    16    1
     2    16    17   ar
     3    17    18   ar
     4    18    19   ar
     5    19    20   ar
     6    20     1    1
     7     1     2    2
     8     2     3    1
     9     3    22    1
    10    22    23    1
    11    23    25    1
    12    25    26   ar
    13    26    27   ar
    14    27    28   ar
    15    28    29   ar
    16    29    30   ar
    17    30    31    1
    18     3     4    2
    19     4     5    1
    20     5     6    1
    21     6     7   ar
    22     7     8   ar
    23     8     9   ar
    24     9    10   ar
    25    10    11   ar
    26    11    12   ar
    27    12    13   ar
    28    13    14   ar
    29    20    21   ar
    30    21    16   ar
    31     5     1    1
    32    14     6   ar
    33    30    25   ar
    34    13     9   ar
    35    23    24    1
@<TRIPOS>MOLECULE
*****
 31 35 0 0 0
SMALL
GASTEIGER

@<TRIPOS>ATOM
      1 C          64.3168   90.0314   14.3466 C.2     1  UNL1        0.2411
      2 N          65.3283   91.0665   14.7411 N.2     1  UNL1       -0.0354
      3 C          65.3589   92.1165   13.6703 C.2     1  UNL1        0.3669
      4 N          64.3662   91.7305   12.6141 N.2     1  UNL1       -0.0535
      5 C          63.7222   90.4418   13.0321 C.3     1  UNL1        0.3044
      6 C          62.6685   89.6948   12.2693 C.ar    1  UNL1        0.0536
      7 C          61.2309   90.1098   12.3738 C.ar    1  UNL1        0.0050
      8 C          60.1772   89.3627   11.6110 C.ar    1  UNL1        0.0387
      9 C          60.5613   88.2006   10.7438 C.ar    1  UNL1        0.1656
     10 N          59.7494   87.2806    9.8811 N.ar    1  UNL1       -0.2034
     11 C          60.6852   86.2969    9.2435 C.ar    1  UNL1        0.2213
     12 N          62.0756   86.6090    9.7121 N.ar    1  UNL1       -0.1409
     13 N          61.9990   87.7856   10.6394 N.ar    1  UNL1       -0.2094
     14 C          63.0526   88.5327   11.4021 C.ar    1  UNL1        0.1024
     15 C          64.3456   84.8610   14.8614 C.3     1  UNL1        0.0521
     16 C          63.9766   86.2167   15.3866 C.ar    1  UNL1        0.0595
     17 C          63.2530   86.3429   16.6945 C.ar    1  UNL1        0.0148
     18 C          62.8840   87.6986   17.2197 C.ar    1  UNL1        0.0029
     19 C          63.2386   88.9281   16.4371 C.ar    1  UNL1        0.0227
     20 C          63.9622   88.8019   15.1292 C.ar    1  UNL1        0.1242
     21 N          64.3312   87.4462   14.6040 N.ar    1  UNL1       -0.2461
     22 C          66.2292   93.3381   13.6580 C.3     1  UNL1        0.2125
     23 N          66.1860   94.2780   12.4897 N.pl3   1  UNL1       -0.3208
     24 H          65.7028   95.1326   12.5631 H       1  UNL1        0.1474
     25 C          66.8791   93.9158   11.2098 C.ar    1  UNL1        0.0729
     26 C          67.3954   92.5225   11.0047 C.ar    1  UNL1        0.0166
     27 C          68.0886   92.1601    9.7247 C.ar    1  UNL1        0.0014
     28 C          68.2654   93.1912    8.6498 C.ar    1  UNL1        0.0024
     29 C          67.7491   94.5846    8.8548 C.ar    1  UNL1        0.0309
     30 C          67.0560   94.9469   10.1347 C.ar    1  UNL1        0.1531
     31 F          66.5397   96.3402   10.3398 F       1  UNL1       -0.2029
@<TRIPOS>BOND
     1    15    16    1
     2    16    17   ar
     3    17    18   ar
     4    18    19   ar
     5    19    20   ar
     6    20     1    1
     7     1     2    2
     8     2     3    1
     9     3    22    1
    10    22    23    1
    11    23    25    1
    12    25    26   ar
    13    26    27   ar
    14    27    28   ar
    15    28    29   ar
    16    29    30   ar
    17    30    31    1
    18     3     4    2
    19     4     5    1
    20     5     6    1
    21     6     7   ar
    22     7     8   ar
    23     8     9   ar
    24     9    10   ar
    25    10    11   ar
    26    11    12   ar
    27    12    13   ar
    28    13    14   ar
    29    20    21   ar
    30    21    16   ar
    31     5     1    1
    32    14     6   ar
    33    30    25   ar
    34    13     9   ar
    35    23    24    1
@<TRIPOS>MOLECULE
*****
 31 35 0 0 0
SMALL
GASTEIGER

@<TRIPOS>ATOM
      1 C          62.3738   87.3936   11.2676 C.2     1  UNL1        0.2411
      2 N          62.6360   88.8064   11.6983 N.2     1  UNL1       -0.0354
      3 C          63.4326   88.7635   12.9686 C.2     1  UNL1        0.3669
      4 N          63.6628   87.3243   13.3230 N.2     1  UNL1       -0.0535
      5 C          63.0084   86.4776   12.2717 C.3     1  UNL1        0.3044
      6 C          62.9917   84.9782   12.2317 C.ar    1  UNL1        0.0536
      7 C          63.5738   84.2528   11.0549 C.ar    1  UNL1        0.0050
      8 C          63.5570   82.7534   11.0149 C.ar    1  UNL1        0.0387
      9 C          62.9581   81.9795   12.1517 C.ar    1  UNL1        0.1656
     10 N          62.8000   80.5070   12.3902 N.ar    1  UNL1       -0.2034
     11 C          62.1201   80.3225   13.7145 C.ar    1  UNL1        0.2213
     12 N          61.8581   81.6808   14.2944 N.ar    1  UNL1       -0.1409
     13 N          62.3760   82.7049   13.3285 N.ar    1  UNL1       -0.2094
     14 C          62.3928   84.2043   13.3685 C.ar    1  UNL1        0.1024
     15 C          62.1728   84.8395    6.7471 C.3     1  UNL1        0.0521
     16 C          61.5105   85.6940    7.7869 C.ar    1  UNL1        0.0595
     17 C          60.0855   86.1260    7.6062 C.ar    1  UNL1        0.0148
     18 C          59.4232   86.9805    8.6460 C.ar    1  UNL1        0.0029
     19 C          60.1860   87.4030    9.8665 C.ar    1  UNL1        0.0227
     20 C          61.6110   86.9711   10.0471 C.ar    1  UNL1        0.1242
     21 N          62.2733   86.1166    9.0073 N.ar    1  UNL1       -0.2461
     22 C          63.9144   89.9512   13.7477 C.3     1  UNL1        0.2125
     23 N          64.9601   90.8558   13.1661 N.pl3   1  UNL1       -0.3208
     24 H          65.0197   90.9760   12.1908 H       1  UNL1        0.1474
     25 C          65.9149   91.5771   14.0705 C.ar    1  UNL1        0.0729
     26 C          65.5039   91.9256   15.4703 C.ar    1  UNL1        0.0166
     27 C          66.4587   92.6470   16.3748 C.ar    1  UNL1        0.0014
     28 C          67.8245   93.0199   15.8793 C.ar    1  UNL1        0.0024
     29 C          68.2355   92.6714   14.4795 C.ar    1  UNL1        0.0309
     30 C          67.2808   91.9501   13.5750 C.ar    1  UNL1        0.1531
     31 F          67.6918   91.6016   12.1752 F       1  UNL1       -0.2029
@<TRIPOS>BOND
     1    15    16    1
     2    16    17   ar
     3    17    18   ar
     4    18    19   ar
     5    19    20   ar
     6    20     1    1
     7     1     2    2
     8     2     3    1
     9     3    22    1
    10    22    23    1
    11    23    25    1
    12    25    26   ar
    13    26    27   ar
    14    27    28   ar
    15    28    29   ar
    16    29    30   ar
    17    30    31    1
    18     3     4    2
    19     4     5    1
    20     5     6    1
    21     6     7   ar
    22     7     8   ar
    23     8     9   ar
    24     9    10   ar
    25    10    11   ar
    26    11    12   ar
    27    12    13   ar
    28    13    14   ar
    29    20    21   ar
    30    21    16   ar
    31     5     1    1
    32    14     6   ar
    33    30    25   ar
    34    13     9   ar
    35    23    24    1
@<TRIPOS>MOLECULE
*****
 31 35 0 0 0
SMALL
GASTEIGER

@<TRIPOS>ATOM
      1 C          63.3253   85.6487   12.8393 C.2     1  UNL1        0.2411
      2 N          63.9174   86.3875   14.0029 N.2     1  UNL1       -0.0354
      3 C          63.7824   87.8573   13.7360 C.2     1  UNL1        0.3669
      4 N          63.1069   88.0271   12.4075 N.2     1  UNL1       -0.0535
      5 C          62.8244   86.6621   11.8534 C.3     1  UNL1        0.3044
      6 C          62.1579   86.3630   10.5432 C.ar    1  UNL1        0.0536
      7 C          60.7612   86.8448   10.2850 C.ar    1  UNL1        0.0050
      8 C          60.0947   86.5457    8.9748 C.ar    1  UNL1        0.0387
      9 C          60.8252   85.7648    7.9229 C.ar    1  UNL1        0.1656
     10 N          60.4287   85.3207    6.5461 N.ar    1  UNL1       -0.2034
     11 C          61.5806   84.5644    5.9534 C.ar    1  UNL1        0.2213
     12 N          62.6889   84.5411    6.9639 N.ar    1  UNL1       -0.1409
     13 N          62.2221   85.2830    8.1811 N.ar    1  UNL1       -0.2094
     14 C          62.8884   85.5821    9.4913 C.ar    1  UNL1        0.1024
     15 C          61.2085   81.0947   14.1732 C.3     1  UNL1        0.0521
     16 C          62.1894   81.8814   13.3553 C.ar    1  UNL1        0.0595
     17 C          63.0928   81.1777   12.3863 C.ar    1  UNL1        0.0148
     18 C          64.0736   81.9643   11.5684 C.ar    1  UNL1        0.0029
     19 C          64.1512   83.4547   11.7194 C.ar    1  UNL1        0.0227
     20 C          63.2478   84.1584   12.6883 C.ar    1  UNL1        0.1242
     21 N          62.2669   83.3717   13.5063 N.ar    1  UNL1       -0.2461
     22 C          64.2421   88.9633   14.6389 C.3     1  UNL1        0.2125
     23 N          63.8788   90.3851   14.3284 N.pl3   1  UNL1       -0.3208
     24 H          63.1009   90.8011   14.7654 H       1  UNL1        0.1474
     25 C          64.7009   91.1731   13.3521 C.ar    1  UNL1        0.0729
     26 C          64.1588   91.4738   11.9861 C.ar    1  UNL1        0.0166
     27 C          64.9808   92.2618   11.0096 C.ar    1  UNL1        0.0014
     28 C          66.3449   92.7492   11.3992 C.ar    1  UNL1        0.0024
     29 C          66.8870   92.4485   12.7652 C.ar    1  UNL1        0.0309
     30 C          66.0650   91.6605   13.7416 C.ar    1  UNL1        0.1531
     31 F          66.6071   91.3599   15.1075 F       1  UNL1       -0.2029
@<TRIPOS>BOND
     1    15    16    1
     2    16    17   ar
     3    17    18   ar
     4    18    19   ar
     5    19    20   ar
     6    20     1    1
     7     1     2    2
     8     2     3    1
     9     3    22    1
    10    22    23    1
    11    23    25    1
    12    25    26   ar
    13    26    27   ar
    14    27    28   ar
    15    28    29   ar
    16    29    30   ar
    17    30    31    1
    18     3     4    2
    19     4     5    1
    20     5     6    1
    21     6     7   ar
    22     7     8   ar
    23     8     9   ar
    24     9    10   ar
    25    10    11   ar
    26    11    12   ar
    27    12    13   ar
    28    13    14   ar
    29    20    21   ar
    30    21    16   ar
    31     5     1    1
    32    14     6   ar
    33    30    25   ar
    34    13     9   ar
    35    23    24    1
@<TRIPOS>MOLECULE
*****
 31 35 0 0 0
SMALL
GASTEIGER

@<TRIPOS>ATOM
      1 C          63.4845   85.7269   13.1035 C.2     1  UNL1        0.2411
      2 N          64.1266   86.4244   14.2659 N.2     1  UNL1       -0.0354
      3 C          63.9935   87.9029   14.0504 C.2     1  UNL1        0.3669
      4 N          63.2692   88.1191   12.7548 N.2     1  UNL1       -0.0535
      5 C          62.9546   86.7743   12.1696 C.3     1  UNL1        0.3044
      6 C          62.2362   86.5213   10.8773 C.ar    1  UNL1        0.0536
      7 C          62.8575   85.6413    9.8336 C.ar    1  UNL1        0.0050
      8 C          62.1391   85.3883    8.5413 C.ar    1  UNL1        0.0387
      9 C          60.7993   86.0154    8.2928 C.ar    1  UNL1        0.1656
     10 N          59.8612   85.9489    7.1243 N.ar    1  UNL1       -0.2034
     11 C          58.6601   86.7879    7.4459 C.ar    1  UNL1        0.2213
     12 N          58.8559   87.3729    8.8131 N.ar    1  UNL1       -0.1409
     13 N          60.1780   86.8955    9.3366 N.ar    1  UNL1       -0.2094
     14 C          60.8964   87.1484   10.6288 C.ar    1  UNL1        0.1024
     15 C          61.2138   81.1824   14.1948 C.3     1  UNL1        0.0521
     16 C          62.2537   81.9704   13.4548 C.ar    1  UNL1        0.0595
     17 C          63.1982   81.2741   12.5204 C.ar    1  UNL1        0.0148
     18 C          64.2381   82.0620   11.7803 C.ar    1  UNL1        0.0029
     19 C          64.3336   83.5463   11.9747 C.ar    1  UNL1        0.0227
     20 C          63.3891   84.2426   12.9091 C.ar    1  UNL1        0.1242
     21 N          62.3491   83.4546   13.6492 N.ar    1  UNL1       -0.2461
     22 C          64.4964   88.9766   14.9691 C.3     1  UNL1        0.2125
     23 N          64.1667   90.4139   14.6944 N.pl3   1  UNL1       -0.3208
     24 H          63.4444   90.8576   15.1951 H       1  UNL1        0.1474
     25 C          64.9375   91.1752   13.6570 C.ar    1  UNL1        0.0729
     26 C          64.2951   91.5151   12.3448 C.ar    1  UNL1        0.0166
     27 C          65.0659   92.2764   11.3072 C.ar    1  UNL1        0.0014
     28 C          66.4791   92.6977   11.5819 C.ar    1  UNL1        0.0024
     29 C          67.1214   92.3578   12.8941 C.ar    1  UNL1        0.0309
     30 C          66.3507   91.5965   13.9316 C.ar    1  UNL1        0.1531
     31 F          66.9931   91.2566   15.2438 F       1  UNL1       -0.2029
@<TRIPOS>BOND
     1    15    16    1
     2    16    17   ar
     3    17    18   ar
     4    18    19   ar
     5    19    20   ar
     6    20     1    1
     7     1     2    2
     8     2     3    1
     9     3    22    1
    10    22    23    1
    11    23    25    1
    12    25    26   ar
    13    26    27   ar
    14    27    28   ar
    15    28    29   ar
    16    29    30   ar
    17    30    31    1
    18     3     4    2
    19     4     5    1
    20     5     6    1
    21     6     7   ar
    22     7     8   ar
    23     8     9   ar
    24     9    10   ar
    25    10    11   ar
    26    11    12   ar
    27    12    13   ar
    28    13    14   ar
    29    20    21   ar
    30    21    16   ar
    31     5     1    1
    32    14     6   ar
    33    30    25   ar
    34    13     9   ar
    35    23    24    1
@<TRIPOS>MOLECULE
*****
 31 35 0 0 0
SMALL
GASTEIGER

@<TRIPOS>ATOM
      1 C          63.4347   85.5743   13.1041 C.2     1  UNL1        0.2411
      2 N          64.0670   86.2321   14.2948 N.2     1  UNL1       -0.0354
      3 C          63.9635   87.7174   14.1132 C.2     1  UNL1        0.3669
      4 N          63.2673   87.9777   12.8103 N.2     1  UNL1       -0.0535
      5 C          62.9405   86.6532   12.1867 C.3     1  UNL1        0.3044
      6 C          62.2420   86.4443   10.8757 C.ar    1  UNL1        0.0536
      7 C          62.8877   85.6149    9.8057 C.ar    1  UNL1        0.0050
      8 C          62.1893   85.4060    8.4947 C.ar    1  UNL1        0.0387
      9 C          60.8451   86.0267    8.2538 C.ar    1  UNL1        0.1656
     10 N          59.9231   85.9964    7.0711 N.ar    1  UNL1       -0.2034
     11 C          58.7075   86.8072    7.4102 C.ar    1  UNL1        0.2213
     12 N          58.8783   87.3386    8.8025 N.ar    1  UNL1       -0.1409
     13 N          60.1994   86.8561    9.3239 N.ar    1  UNL1       -0.2094
     14 C          60.8979   87.0650   10.6348 C.ar    1  UNL1        0.1024
     15 C          61.1338   81.0279   14.1214 C.3     1  UNL1        0.0521
     16 C          62.1669   81.8239   13.3804 C.ar    1  UNL1        0.0595
     17 C          63.0825   81.1427   12.4069 C.ar    1  UNL1        0.0148
     18 C          64.1155   81.9387   11.6658 C.ar    1  UNL1        0.0029
     19 C          64.2329   83.4159   11.8982 C.ar    1  UNL1        0.0227
     20 C          63.3173   84.0971   12.8717 C.ar    1  UNL1        0.1242
     21 N          62.2843   83.3011   13.6128 N.ar    1  UNL1       -0.2461
     22 C          64.4676   88.7596   15.0670 C.3     1  UNL1        0.2125
     23 N          64.1354   90.2050   14.8428 N.pl3   1  UNL1       -0.3208
     24 H          63.3689   90.6118   15.3079 H       1  UNL1        0.1474
     25 C          64.9709   91.0307   13.9101 C.ar    1  UNL1        0.0729
     26 C          66.3788   91.3896   14.2829 C.ar    1  UNL1        0.0166
     27 C          67.2145   92.2153   13.3502 C.ar    1  UNL1        0.0014
     28 C          66.6422   92.6822   12.0446 C.ar    1  UNL1        0.0024
     29 C          65.2343   92.3233   11.6718 C.ar    1  UNL1        0.0309
     30 C          64.3987   91.4976   12.6045 C.ar    1  UNL1        0.1531
     31 F          62.9908   91.1388   12.2317 F       1  UNL1       -0.2029
@<TRIPOS>BOND
     1    15    16    1
     2    16    17   ar
     3    17    18   ar
     4    18    19   ar
     5    19    20   ar
     6    20     1    1
     7     1     2    2
     8     2     3    1
     9     3    22    1
    10    22    23    1
    11    23    25    1
    12    25    26   ar
    13    26    27   ar
    14    27    28   ar
    15    28    29   ar
    16    29    30   ar
    17    30    31    1
    18     3     4    2
    19     4     5    1
    20     5     6    1
    21     6     7   ar
    22     7     8   ar
    23     8     9   ar
    24     9    10   ar
    25    10    11   ar
    26    11    12   ar
    27    12    13   ar
    28    13    14   ar
    29    20    21   ar
    30    21    16   ar
    31     5     1    1
    32    14     6   ar
    33    30    25   ar
    34    13     9   ar
    35    23    24    1
@<TRIPOS>MOLECULE
*****
 31 35 0 0 0
SMALL
GASTEIGER

@<TRIPOS>ATOM
      1 C          63.6181   90.4584   12.8760 C.2     1  UNL1        0.2411
      2 N          64.2450   91.7833   12.5572 N.2     1  UNL1       -0.0354
      3 C          65.3374   92.0312   13.5549 C.2     1  UNL1        0.3669
      4 N          65.3855   90.8596   14.4902 N.2     1  UNL1       -0.0535
      5 C          64.3230   89.8875   14.0706 C.3     1  UNL1        0.3044
      6 C          64.0187   88.5749   14.7300 C.ar    1  UNL1        0.0536
      7 C          63.4486   88.5468   16.1171 C.ar    1  UNL1        0.0050
      8 C          63.1444   87.2342   16.7765 C.ar    1  UNL1        0.0387
      9 C          63.4103   85.9499   16.0486 C.ar    1  UNL1        0.1656
     10 N          63.2131   84.5153   16.4397 N.ar    1  UNL1       -0.2034
     11 C          63.6614   83.6568   15.2942 C.ar    1  UNL1        0.2213
     12 N          64.1356   84.5609   14.1952 N.ar    1  UNL1       -0.1409
     13 N          63.9805   85.9781   14.6615 N.ar    1  UNL1       -0.2094
     14 C          64.2847   87.2906   14.0022 C.ar    1  UNL1        0.1024
     15 C          58.6177   89.0701   12.6149 C.3     1  UNL1        0.0521
     16 C          59.9850   89.1228   12.0004 C.ar    1  UNL1        0.0595
     17 C          60.2194   88.5342   10.6408 C.ar    1  UNL1        0.0148
     18 C          61.5867   88.5869   10.0262 C.ar    1  UNL1        0.0029
     19 C          62.7196   89.2283   10.7713 C.ar    1  UNL1        0.0227
     20 C          62.4852   89.8170   12.1309 C.ar    1  UNL1        0.1242
     21 N          61.1179   89.7642   12.7455 N.ar    1  UNL1       -0.2461
     22 C          66.2256   93.2388   13.6079 C.3     1  UNL1        0.2125
     23 N          66.1844   94.2494   12.5003 N.pl3   1  UNL1       -0.3208
     24 H          65.7127   95.1037   12.6306 H       1  UNL1        0.1474
     25 C          66.8619   93.9585   11.1940 C.ar    1  UNL1        0.0729
     26 C          67.3822   92.5807   10.9095 C.ar    1  UNL1        0.0166
     27 C          68.0597   92.2896    9.6032 C.ar    1  UNL1        0.0014
     28 C          68.2168   93.3764    8.5814 C.ar    1  UNL1        0.0024
     29 C          67.6965   94.7542    8.8659 C.ar    1  UNL1        0.0309
     30 C          67.0190   95.0453   10.1721 C.ar    1  UNL1        0.1531
     31 F          66.4987   96.4231   10.4565 F       1  UNL1       -0.2029
@<TRIPOS>BOND
     1    15    16    1
     2    16    17   ar
     3    17    18   ar
     4    18    19   ar
     5    19    20   ar
     6    20     1    1
     7     1     2    2
     8     2     3    1
     9     3    22    1
    10    22    23    1
    11    23    25    1
    12    25    26   ar
    13    26    27   ar
    14    27    28   ar
    15    28    29   ar
    16    29    30   ar
    17    30    31    1
    18     3     4    2
    19     4     5    1
    20     5     6    1
    21     6     7   ar
    22     7     8   ar
    23     8     9   ar
    24     9    10   ar
    25    10    11   ar
    26    11    12   ar
    27    12    13   ar
    28    13    14   ar
    29    20    21   ar
    30    21    16   ar
    31     5     1    1
    32    14     6   ar
    33    30    25   ar
    34    13     9   ar
    35    23    24    1
@<TRIPOS>MOLECULE
*****
 31 35 0 0 0
SMALL
GASTEIGER

@<TRIPOS>ATOM
      1 C          63.4891   85.7561   13.1122 C.2     1  UNL1        0.2411
      2 N          64.1156   86.4571   14.2811 N.2     1  UNL1       -0.0354
      3 C          63.9806   87.9349   14.0621 C.2     1  UNL1        0.3669
      4 N          63.2708   88.1472   12.7579 N.2     1  UNL1       -0.0535
      5 C          62.9670   86.8007   12.1708 C.3     1  UNL1        0.3044
      6 C          62.2645   86.5439   10.8705 C.ar    1  UNL1        0.0536
      7 C          62.9272   85.7144    9.8111 C.ar    1  UNL1        0.0050
      8 C          62.2247   85.4576    8.5108 C.ar    1  UNL1        0.0387
      9 C          60.8594   86.0304    8.2702 C.ar    1  UNL1        0.1656
     10 N          59.9288   85.9476    7.0967 N.ar    1  UNL1       -0.2034
     11 C          58.6909   86.7260    7.4310 C.ar    1  UNL1        0.2213
     12 N          58.8565   87.2899    8.8111 N.ar    1  UNL1       -0.1409
     13 N          60.1967   86.8600    9.3297 N.ar    1  UNL1       -0.2094
     14 C          60.8993   87.1167   10.6299 C.ar    1  UNL1        0.1024
     15 C          61.2386   81.2022   14.2058 C.3     1  UNL1        0.0521
     16 C          62.2752   81.9943   13.4655 C.ar    1  UNL1        0.0595
     17 C          63.2230   81.3017   12.5317 C.ar    1  UNL1        0.0148
     18 C          64.2595   82.0939   11.7914 C.ar    1  UNL1        0.0029
     19 C          64.3482   83.5787   11.9849 C.ar    1  UNL1        0.0227
     20 C          63.4004   84.2713   12.9187 C.ar    1  UNL1        0.1242
     21 N          62.3639   83.4791   13.6590 N.ar    1  UNL1       -0.2461
     22 C          64.4696   89.0113   14.9852 C.3     1  UNL1        0.2125
     23 N          64.4406   90.4455   14.5469 N.pl3   1  UNL1       -0.3208
     24 H          63.6286   90.8174   14.1327 H       1  UNL1        0.1474
     25 C          65.6489   91.3132   14.7397 C.ar    1  UNL1        0.0729
     26 C          66.7573   91.2907   13.7292 C.ar    1  UNL1        0.0166
     27 C          67.9657   92.1584   13.9219 C.ar    1  UNL1        0.0014
     28 C          68.0656   93.0485   15.1251 C.ar    1  UNL1        0.0024
     29 C          66.9573   93.0709   16.1356 C.ar    1  UNL1        0.0309
     30 C          65.7489   92.2033   15.9429 C.ar    1  UNL1        0.1531
     31 F          64.6406   92.2257   16.9533 F       1  UNL1       -0.2029
@<TRIPOS>BOND
     1    15    16    1
     2    16    17   ar
     3    17    18   ar
     4    18    19   ar
     5    19    20   ar
     6    20     1    1
     7     1     2    2
     8     2     3    1
     9     3    22    1
    10    22    23    1
    11    23    25    1
    12    25    26   ar
    13    26    27   ar
    14    27    28   ar
    15    28    29   ar
    16    29    30   ar
    17    30    31    1
    18     3     4    2
    19     4     5    1
    20     5     6    1
    21     6     7   ar
    22     7     8   ar
    23     8     9   ar
    24     9    10   ar
    25    10    11   ar
    26    11    12   ar
    27    12    13   ar
    28    13    14   ar
    29    20    21   ar
    30    21    16   ar
    31     5     1    1
    32    14     6   ar
    33    30    25   ar
    34    13     9   ar
    35    23    24    1
@<TRIPOS>MOLECULE
*****
 31 35 0 0 0
SMALL
GASTEIGER

@<TRIPOS>ATOM
      1 C          63.2767   86.2348   13.1004 C.2     1  UNL1        0.2411
      2 N          63.9534   87.0356   14.1733 N.2     1  UNL1       -0.0354
      3 C          63.9249   88.4781   13.7627 C.2     1  UNL1        0.3669
      4 N          63.2306   88.5688   12.4362 N.2     1  UNL1       -0.0535
      5 C          62.8300   87.1824   12.0269 C.3     1  UNL1        0.3044
      6 C          62.1092   86.8092   10.7654 C.ar    1  UNL1        0.0536
      7 C          60.6948   87.2589   10.5487 C.ar    1  UNL1        0.0050
      8 C          59.9740   86.8857    9.2872 C.ar    1  UNL1        0.0387
      9 C          60.6678   86.0628    8.2425 C.ar    1  UNL1        0.1656
     10 N          60.2159   85.5450    6.9092 N.ar    1  UNL1       -0.2034
     11 C          61.3511   84.7752    6.3020 C.ar    1  UNL1        0.2213
     12 N          62.5046   84.8172    7.2599 N.ar    1  UNL1       -0.1409
     13 N          62.0823   85.6130    8.4593 N.ar    1  UNL1       -0.2094
     14 C          62.8030   85.9863    9.7207 C.ar    1  UNL1        0.1024
     15 C          63.5863   81.6544   10.6667 C.3     1  UNL1        0.0521
     16 C          63.2359   82.4575   11.8842 C.ar    1  UNL1        0.0595
     17 C          62.6898   81.7733   13.1024 C.ar    1  UNL1        0.0148
     18 C          62.3394   82.5764   14.3198 C.ar    1  UNL1        0.0029
     19 C          62.5350   84.0636   14.3192 C.ar    1  UNL1        0.0227
     20 C          63.0811   84.7477   13.1011 C.ar    1  UNL1        0.1242
     21 N          63.4315   83.9446   11.8836 N.ar    1  UNL1       -0.2461
     22 C          64.4912   89.6279   14.5419 C.3     1  UNL1        0.2125
     23 N          65.0241   90.8314   13.8225 N.pl3   1  UNL1       -0.3208
     24 H          64.5996   91.1336   12.9872 H       1  UNL1        0.1474
     25 C          66.2040   91.5744   14.3756 C.ar    1  UNL1        0.0729
     26 C          67.4909   91.6176   13.6063 C.ar    1  UNL1        0.0166
     27 C          68.6709   92.3605   14.1594 C.ar    1  UNL1        0.0014
     28 C          68.5637   93.0603   15.4818 C.ar    1  UNL1        0.0024
     29 C          67.2767   93.0171   16.2511 C.ar    1  UNL1        0.0309
     30 C          66.0969   92.2742   15.6981 C.ar    1  UNL1        0.1531
     31 F          64.8099   92.2310   16.4673 F       1  UNL1       -0.2029
@<TRIPOS>BOND
     1    15    16    1
     2    16    17   ar
     3    17    18   ar
     4    18    19   ar
     5    19    20   ar
     6    20     1    1
     7     1     2    2
     8     2     3    1
     9     3    22    1
    10    22    23    1
    11    23    25    1
    12    25    26   ar
    13    26    27   ar
    14    27    28   ar
    15    28    29   ar
    16    29    30   ar
    17    30    31    1
    18     3     4    2
    19     4     5    1
    20     5     6    1
    21     6     7   ar
    22     7     8   ar
    23     8     9   ar
    24     9    10   ar
    25    10    11   ar
    26    11    12   ar
    27    12    13   ar
    28    13    14   ar
    29    20    21   ar
    30    21    16   ar
    31     5     1    1
    32    14     6   ar
    33    30    25   ar
    34    13     9   ar
    35    23    24    1
