@<TRIPOS>MOLECULE
*****
 37 40 0 0 0
SMALL
GASTEIGER

@<TRIPOS>ATOM
      1 C          61.0123   92.7226    2.4012 C.ar    1  UNL1       -0.0224
      2 C          62.4953   92.7046    2.1766 C.ar    1  UNL1       -0.0041
      3 C          63.0860   93.4387    1.0096 C.ar    1  UNL1        0.0042
      4 C          62.1938   94.1908    0.0671 C.ar    1  UNL1        0.0537
      5 C          60.7108   94.2088    0.2917 C.ar    1  UNL1        0.0042
      6 C          60.1201   93.4747    1.4587 C.ar    1  UNL1       -0.0041
      7 N          59.2400   90.5202    5.9025 N.3     1  UNL1       -0.2689
      8 C          60.6942   90.3574    5.5722 C.3     1  UNL1        0.0727
      9 C          61.2849   91.0915    4.4051 C.3     1  UNL1        0.0217
     10 C          60.4215   91.9884    3.5683 C.3     1  UNL1        0.0251
     11 C          58.9675   92.1512    3.8986 C.3     1  UNL1        0.0217
     12 C          58.3767   91.4171    5.0657 C.3     1  UNL1        0.0727
     13 C          58.6493   89.7861    7.0696 C.3     1  UNL1        0.0991
     14 C          61.1691   86.8859    9.4126 C.ar    1  UNL1        0.0533
     15 C          60.2700   86.3864    8.3208 C.ar    1  UNL1        0.0042
     16 C          59.4301   87.3531    7.5398 C.ar    1  UNL1       -0.0028
     17 C          59.4892   88.8193    7.8506 C.ar    1  UNL1       -0.0061
     18 C          60.3883   89.3188    8.9424 C.ar    1  UNL1       -0.0028
     19 C          61.2283   88.3521    9.7234 C.ar    1  UNL1        0.0042
     20 C          62.7979   84.9555   12.4737 C.3     1  UNL1        0.1109
     21 N          61.9580   85.9222   11.6927 N.am    1  UNL1       -0.2992
     22 C          62.0090   85.9191   10.1936 C.2     1  UNL1        0.2459
     23 O          62.8999   84.9494    9.4755 O.2     1  UNL1       -0.2701
     24 H          61.3733   86.5587   12.1640 H       1  UNL1        0.1498
     25 C          62.7845   94.9249   -1.1000 C.2     1  UNL1        0.2495
     26 O          62.2662   96.2824   -1.4725 O.2     1  UNL1       -0.2698
     27 N          63.8936   94.3016   -1.8946 N.am    1  UNL1       -0.2794
     28 H          64.2338   93.4107   -1.6502 H       1  UNL1        0.1552
     29 C          64.4843   95.0358   -3.0617 C.ar    1  UNL1        0.0636
     30 C          64.0662   94.6839   -4.4586 C.ar    1  UNL1        0.0159
     31 C          64.6570   95.4180   -5.6257 C.ar    1  UNL1        0.0014
     32 C          65.6658   96.5040   -5.3959 C.ar    1  UNL1        0.0013
     33 C          66.0839   96.8559   -3.9990 C.ar    1  UNL1        0.0153
     34 C          65.4932   96.1218   -2.8318 C.ar    1  UNL1        0.0552
     35 N          65.9113   96.4736   -1.4350 N.pl3   1  UNL1       -0.3560
     36 H          66.5734   97.1864   -1.2841 H       1  UNL1        0.1424
     37 H          65.5236   95.9918   -0.6690 H       1  UNL1        0.1424
@<TRIPOS>BOND
     1    20    21    1
     2    21    22   am
     3    22    23    2
     4    22    14    1
     5    14    15   ar
     6    15    16   ar
     7    16    17   ar
     8    17    13    1
     9    13     7    1
    10     7     8    1
    11     8     9    1
    12     9    10    1
    13    10     1    1
    14     1     2   ar
    15     2     3   ar
    16     3     4   ar
    17     4    25    1
    18    25    26    2
    19    25    27   am
    20    27    29    1
    21    29    30   ar
    22    30    31   ar
    23    31    32   ar
    24    32    33   ar
    25    33    34   ar
    26    34    35    1
    27     4     5   ar
    28     5     6   ar
    29    10    11    1
    30    11    12    1
    31    17    18   ar
    32    18    19   ar
    33    19    14   ar
    34    12     7    1
    35     6     1   ar
    36    34    29   ar
    37    21    24    1
    38    27    28    1
    39    35    36    1
    40    35    37    1
@<TRIPOS>MOLECULE
*****
 37 40 0 0 0
SMALL
GASTEIGER

@<TRIPOS>ATOM
      1 C          60.7545   92.8118    2.4650 C.ar    1  UNL1       -0.0224
      2 C          62.2278   92.8042    2.1831 C.ar    1  UNL1       -0.0041
      3 C          62.7739   93.5868    1.0259 C.ar    1  UNL1        0.0042
      4 C          61.8469   94.3769    0.1505 C.ar    1  UNL1        0.0537
      5 C          60.3736   94.3845    0.4324 C.ar    1  UNL1        0.0042
      6 C          59.8275   93.6019    1.5897 C.ar    1  UNL1       -0.0041
      7 N          59.1158   90.4641    5.9369 N.3     1  UNL1       -0.2689
      8 C          58.1999   91.3144    5.1073 C.3     1  UNL1        0.0727
      9 C          58.7461   92.0969    3.9501 C.3     1  UNL1        0.0217
     10 C          60.2083   92.0292    3.6223 C.3     1  UNL1        0.0251
     11 C          61.1243   91.1790    4.4518 C.3     1  UNL1        0.0217
     12 C          60.5780   90.3964    5.6091 C.3     1  UNL1        0.0727
     13 C          58.5696   89.6816    7.0941 C.3     1  UNL1        0.0991
     14 C          61.2027   86.7558    9.2750 C.ar    1  UNL1        0.0533
     15 C          61.2155   88.2061    9.6576 C.ar    1  UNL1        0.0042
     16 C          60.3378   89.1813    8.9307 C.ar    1  UNL1       -0.0028
     17 C          59.4473   88.7063    7.8211 C.ar    1  UNL1       -0.0061
     18 C          59.4344   87.2560    7.4384 C.ar    1  UNL1       -0.0028
     19 C          60.3121   86.2808    8.1654 C.ar    1  UNL1        0.0042
     20 C          62.8281   84.6419   12.2143 C.3     1  UNL1        0.1109
     21 N          61.9504   85.6172   11.4874 N.am    1  UNL1       -0.2992
     22 C          62.0804   85.7805   10.0020 C.2     1  UNL1        0.2459
     23 O          63.0881   84.9685    9.2436 O.2     1  UNL1       -0.2701
     24 H          61.2890   86.1501   11.9851 H       1  UNL1        0.1498
     25 C          62.3931   95.1595   -1.0068 C.2     1  UNL1        0.2495
     26 O          61.9998   96.5949   -1.1938 O.2     1  UNL1       -0.2698
     27 N          63.3326   94.5067   -1.9769 N.am    1  UNL1       -0.2794
     28 H          63.5907   93.5646   -1.8541 H       1  UNL1        0.1552
     29 C          63.8787   95.2893   -3.1341 C.ar    1  UNL1        0.0636
     30 C          65.1675   96.0429   -2.9884 C.ar    1  UNL1        0.0159
     31 C          65.7137   96.8255   -4.1456 C.ar    1  UNL1        0.0014
     32 C          64.9712   96.8545   -5.4486 C.ar    1  UNL1        0.0013
     33 C          63.6824   96.1009   -5.5944 C.ar    1  UNL1        0.0153
     34 C          63.1362   95.3183   -4.4371 C.ar    1  UNL1        0.0552
     35 N          61.8475   94.5647   -4.5829 N.pl3   1  UNL1       -0.3560
     36 H          61.3601   94.5838   -5.4381 H       1  UNL1        0.1424
     37 H          61.4890   94.0511   -3.8234 H       1  UNL1        0.1424
@<TRIPOS>BOND
     1    20    21    1
     2    21    22   am
     3    22    23    2
     4    22    14    1
     5    14    15   ar
     6    15    16   ar
     7    16    17   ar
     8    17    13    1
     9    13     7    1
    10     7     8    1
    11     8     9    1
    12     9    10    1
    13    10     1    1
    14     1     2   ar
    15     2     3   ar
    16     3     4   ar
    17     4    25    1
    18    25    26    2
    19    25    27   am
    20    27    29    1
    21    29    30   ar
    22    30    31   ar
    23    31    32   ar
    24    32    33   ar
    25    33    34   ar
    26    34    35    1
    27     4     5   ar
    28     5     6   ar
    29    10    11    1
    30    11    12    1
    31    17    18   ar
    32    18    19   ar
    33    19    14   ar
    34    12     7    1
    35     6     1   ar
    36    34    29   ar
    37    21    24    1
    38    27    28    1
    39    35    36    1
    40    35    37    1
@<TRIPOS>MOLECULE
*****
 37 40 0 0 0
SMALL
GASTEIGER

@<TRIPOS>ATOM
      1 C          60.1646   89.2131    7.3911 C.ar    1  UNL1       -0.0224
      2 C          60.8881   89.7594    8.5861 C.ar    1  UNL1       -0.0041
      3 C          61.2431   88.8528    9.7270 C.ar    1  UNL1        0.0042
      4 C          60.8747   87.3997    9.6730 C.ar    1  UNL1        0.0537
      5 C          60.1512   86.8534    8.4780 C.ar    1  UNL1        0.0042
      6 C          59.7962   87.7601    7.3371 C.ar    1  UNL1       -0.0041
      7 N          59.0995   91.9332    3.9680 N.3     1  UNL1       -0.2689
      8 C          60.5321   91.5628    4.2140 C.3     1  UNL1        0.0727
      9 C          60.8871   90.6561    5.3550 C.3     1  UNL1        0.0217
     10 C          59.8095   90.1198    6.2501 C.3     1  UNL1        0.0251
     11 C          58.3770   90.4901    6.0042 C.3     1  UNL1        0.0217
     12 C          58.0219   91.3968    4.8631 C.3     1  UNL1        0.0727
     13 C          58.7445   92.8398    2.8270 C.3     1  UNL1        0.0991
     14 C          61.8109   93.7973   -0.3242 C.ar    1  UNL1        0.0533
     15 C          60.8609   92.6540   -0.5250 C.ar    1  UNL1        0.0042
     16 C          59.8388   92.3348    0.5255 C.ar    1  UNL1       -0.0028
     17 C          59.7666   93.1590    1.7766 C.ar    1  UNL1       -0.0061
     18 C          60.7166   94.3023    1.9774 C.ar    1  UNL1       -0.0028
     19 C          61.7387   94.6215    0.9270 C.ar    1  UNL1        0.0042
     20 C          64.7061   95.6640   -2.2948 C.3     1  UNL1        0.1109
     21 N          63.6839   95.3449   -1.2444 N.am    1  UNL1       -0.2992
     22 C          62.8330   94.1165   -1.3746 C.2     1  UNL1        0.2459
     23 O          63.0043   93.2072   -2.5552 O.2     1  UNL1       -0.2701
     24 H          63.5715   95.9416   -0.4695 H       1  UNL1        0.1498
     25 C          61.2298   86.4930   10.8140 C.2     1  UNL1        0.2495
     26 O          60.5414   86.6484   12.1377 O.2     1  UNL1       -0.2698
     27 N          62.2731   85.4310   10.6314 N.am    1  UNL1       -0.2794
     28 H          62.7249   85.3290    9.7626 H       1  UNL1        0.1552
     29 C          62.6282   84.5244   11.7724 C.ar    1  UNL1        0.0636
     30 C          62.4108   83.0451   11.6507 C.ar    1  UNL1        0.0159
     31 C          62.7658   82.1385   12.7917 C.ar    1  UNL1        0.0014
     32 C          63.3382   82.7110   14.0544 C.ar    1  UNL1        0.0013
     33 C          63.5555   84.1901   14.1762 C.ar    1  UNL1        0.0153
     34 C          63.2005   85.0969   13.0352 C.ar    1  UNL1        0.0552
     35 N          63.4179   86.5760   13.1570 N.pl3   1  UNL1       -0.3560
     36 H          63.7935   86.9517   13.9858 H       1  UNL1        0.1424
     37 H          63.1849   87.1711   12.4081 H       1  UNL1        0.1424
@<TRIPOS>BOND
     1    20    21    1
     2    21    22   am
     3    22    23    2
     4    22    14    1
     5    14    15   ar
     6    15    16   ar
     7    16    17   ar
     8    17    13    1
     9    13     7    1
    10     7     8    1
    11     8     9    1
    12     9    10    1
    13    10     1    1
    14     1     2   ar
    15     2     3   ar
    16     3     4   ar
    17     4    25    1
    18    25    26    2
    19    25    27   am
    20    27    29    1
    21    29    30   ar
    22    30    31   ar
    23    31    32   ar
    24    32    33   ar
    25    33    34   ar
    26    34    35    1
    27     4     5   ar
    28     5     6   ar
    29    10    11    1
    30    11    12    1
    31    17    18   ar
    32    18    19   ar
    33    19    14   ar
    34    12     7    1
    35     6     1   ar
    36    34    29   ar
    37    21    24    1
    38    27    28    1
    39    35    36    1
    40    35    37    1
@<TRIPOS>MOLECULE
*****
 37 40 0 0 0
SMALL
GASTEIGER

@<TRIPOS>ATOM
      1 C          60.1712   89.1947    7.3992 C.ar    1  UNL1       -0.0224
      2 C          59.8060   87.7409    7.3425 C.ar    1  UNL1       -0.0041
      3 C          60.1591   86.8339    8.4837 C.ar    1  UNL1        0.0042
      4 C          60.8775   87.3806    9.6817 C.ar    1  UNL1        0.0537
      5 C          61.2427   88.8343    9.7384 C.ar    1  UNL1        0.0042
      6 C          60.8896   89.7413    8.5971 C.ar    1  UNL1       -0.0041
      7 N          59.1118   91.9160    3.9753 N.3     1  UNL1       -0.2689
      8 C          58.0326   91.3782    4.8677 C.3     1  UNL1        0.0727
      9 C          58.3858   90.4711    6.0089 C.3     1  UNL1        0.0217
     10 C          59.8181   90.1018    6.2579 C.3     1  UNL1        0.0251
     11 C          60.8973   90.6395    5.3656 C.3     1  UNL1        0.0217
     12 C          60.5442   91.5467    4.2243 C.3     1  UNL1        0.0727
     13 C          58.7587   92.8231    2.8341 C.3     1  UNL1        0.0991
     14 C          61.8305   93.7825   -0.3113 C.ar    1  UNL1        0.0533
     15 C          60.8827   92.6376   -0.5131 C.ar    1  UNL1        0.0042
     16 C          59.8588   92.3178    0.5353 C.ar    1  UNL1       -0.0028
     17 C          59.7826   93.1429    1.7857 C.ar    1  UNL1       -0.0061
     18 C          60.7305   94.2878    1.9875 C.ar    1  UNL1       -0.0028
     19 C          61.7544   94.6076    0.9391 C.ar    1  UNL1        0.0042
     20 C          64.7236   95.6547   -2.2798 C.3     1  UNL1        0.1109
     21 N          63.6996   95.3349   -1.2314 N.am    1  UNL1       -0.2992
     22 C          62.8545   94.1023   -1.3597 C.2     1  UNL1        0.2459
     23 O          63.0333   93.1896   -2.5365 O.2     1  UNL1       -0.2701
     24 H          63.5823   95.9340   -0.4590 H       1  UNL1        0.1498
     25 C          61.2306   86.4734   10.8230 C.2     1  UNL1        0.2495
     26 O          60.5550   86.6419   12.1516 O.2     1  UNL1       -0.2698
     27 N          62.2592   85.3979   10.6356 N.am    1  UNL1       -0.2794
     28 H          62.7026   85.2874    9.7636 H       1  UNL1        0.1552
     29 C          62.6123   84.4909   11.7769 C.ar    1  UNL1        0.0636
     30 C          62.3839   83.0130   11.6587 C.ar    1  UNL1        0.0159
     31 C          62.7370   82.1060   12.8000 C.ar    1  UNL1        0.0014
     32 C          63.3184   82.6767   14.0595 C.ar    1  UNL1        0.0013
     33 C          63.5468   84.1544   14.1777 C.ar    1  UNL1        0.0153
     34 C          63.1937   85.0616   13.0363 C.ar    1  UNL1        0.0552
     35 N          63.4221   86.5393   13.1545 N.pl3   1  UNL1       -0.3560
     36 H          63.8037   86.9139   13.9812 H       1  UNL1        0.1424
     37 H          63.1904   87.1347   12.4055 H       1  UNL1        0.1424
@<TRIPOS>BOND
     1    20    21    1
     2    21    22   am
     3    22    23    2
     4    22    14    1
     5    14    15   ar
     6    15    16   ar
     7    16    17   ar
     8    17    13    1
     9    13     7    1
    10     7     8    1
    11     8     9    1
    12     9    10    1
    13    10     1    1
    14     1     2   ar
    15     2     3   ar
    16     3     4   ar
    17     4    25    1
    18    25    26    2
    19    25    27   am
    20    27    29    1
    21    29    30   ar
    22    30    31   ar
    23    31    32   ar
    24    32    33   ar
    25    33    34   ar
    26    34    35    1
    27     4     5   ar
    28     5     6   ar
    29    10    11    1
    30    11    12    1
    31    17    18   ar
    32    18    19   ar
    33    19    14   ar
    34    12     7    1
    35     6     1   ar
    36    34    29   ar
    37    21    24    1
    38    27    28    1
    39    35    36    1
    40    35    37    1
@<TRIPOS>MOLECULE
*****
 37 40 0 0 0
SMALL
GASTEIGER

@<TRIPOS>ATOM
      1 C          64.2698   88.3422   13.9176 C.ar    1  UNL1       -0.0224
      2 C          63.4264   87.6766   12.8710 C.ar    1  UNL1       -0.0041
      3 C          62.9792   86.2573   13.0593 C.ar    1  UNL1        0.0042
      4 C          63.3753   85.5036   14.2942 C.ar    1  UNL1        0.0537
      5 C          64.2187   86.1693   15.3409 C.ar    1  UNL1        0.0042
      6 C          64.6660   87.5886   15.1526 C.ar    1  UNL1       -0.0041
      7 N          65.6117   92.6003   13.3528 N.3     1  UNL1       -0.2689
      8 C          64.5890   92.0073   12.4293 C.3     1  UNL1        0.0727
      9 C          64.1418   90.5880   12.6176 C.3     1  UNL1        0.0217
     10 C          64.7171   89.7616   13.7294 C.3     1  UNL1        0.0251
     11 C          65.7397   90.3545   14.6528 C.3     1  UNL1        0.0217
     12 C          66.1870   91.7738   14.4646 C.3     1  UNL1        0.0727
     13 C          66.0589   94.0196   13.1645 C.3     1  UNL1        0.0991
     14 C          66.4588   95.7214    9.0179 C.ar    1  UNL1        0.0533
     15 C          65.8964   96.5646   10.1237 C.ar    1  UNL1        0.0042
     16 C          65.7632   95.9973   11.5059 C.ar    1  UNL1       -0.0028
     17 C          66.1922   94.5869   11.7823 C.ar    1  UNL1       -0.0061
     18 C          66.7545   93.7437   10.6765 C.ar    1  UNL1       -0.0028
     19 C          66.8878   94.3109    9.2944 C.ar    1  UNL1        0.0042
     20 C          65.5465   96.8560    5.3260 C.3     1  UNL1        0.1109
     21 N          65.4133   96.2887    6.7082 N.am    1  UNL1       -0.2992
     22 C          66.5920   96.2887    7.6358 C.2     1  UNL1        0.2459
     23 O          67.9041   96.8559    7.1811 O.2     1  UNL1       -0.2701
     24 H          64.5521   95.9164    7.0066 H       1  UNL1        0.1498
     25 C          62.9280   84.0842   14.4825 C.2     1  UNL1        0.2495
     26 O          62.9052   83.4810   15.8557 O.2     1  UNL1       -0.2698
     27 N          62.5036   83.2682   13.2977 N.am    1  UNL1       -0.2794
     28 H          62.5186   83.6641   12.3964 H       1  UNL1        0.1552
     29 C          62.0564   81.8489   13.4860 C.ar    1  UNL1        0.0636
     30 C          60.6806   81.5592   14.0091 C.ar    1  UNL1        0.0159
     31 C          60.2334   80.1399   14.1974 C.ar    1  UNL1        0.0014
     32 C          61.1617   79.0103   13.8626 C.ar    1  UNL1        0.0013
     33 C          62.5374   79.2999   13.3396 C.ar    1  UNL1        0.0153
     34 C          62.9847   80.7193   13.1512 C.ar    1  UNL1        0.0552
     35 N          64.3604   81.0090   12.6282 N.pl3   1  UNL1       -0.3560
     36 H          64.9697   80.2675   12.4085 H       1  UNL1        0.1424
     37 H          64.6540   81.9405   12.5046 H       1  UNL1        0.1424
@<TRIPOS>BOND
     1    20    21    1
     2    21    22   am
     3    22    23    2
     4    22    14    1
     5    14    15   ar
     6    15    16   ar
     7    16    17   ar
     8    17    13    1
     9    13     7    1
    10     7     8    1
    11     8     9    1
    12     9    10    1
    13    10     1    1
    14     1     2   ar
    15     2     3   ar
    16     3     4   ar
    17     4    25    1
    18    25    26    2
    19    25    27   am
    20    27    29    1
    21    29    30   ar
    22    30    31   ar
    23    31    32   ar
    24    32    33   ar
    25    33    34   ar
    26    34    35    1
    27     4     5   ar
    28     5     6   ar
    29    10    11    1
    30    11    12    1
    31    17    18   ar
    32    18    19   ar
    33    19    14   ar
    34    12     7    1
    35     6     1   ar
    36    34    29   ar
    37    21    24    1
    38    27    28    1
    39    35    36    1
    40    35    37    1
@<TRIPOS>MOLECULE
*****
 37 40 0 0 0
SMALL
GASTEIGER

@<TRIPOS>ATOM
      1 C          59.8734   90.6948    5.7161 C.ar    1  UNL1       -0.0224
      2 C          58.5617   91.2485    5.2441 C.ar    1  UNL1       -0.0041
      3 C          58.4926   92.0229    3.9613 C.ar    1  UNL1        0.0042
      4 C          59.7352   92.2435    3.1505 C.ar    1  UNL1        0.0537
      5 C          61.0468   91.6898    3.6226 C.ar    1  UNL1        0.0042
      6 C          61.1159   90.9154    4.9053 C.ar    1  UNL1       -0.0041
      7 N          60.0808   88.3717    9.5646 N.3     1  UNL1       -0.2689
      8 C          60.8064   89.6784    9.4372 C.3     1  UNL1        0.0727
      9 C          60.7372   90.4527    8.1544 C.3     1  UNL1        0.0217
     10 C          59.9425   89.9204    6.9989 C.3     1  UNL1        0.0251
     11 C          59.2170   88.6138    7.1263 C.3     1  UNL1        0.0217
     12 C          59.2861   87.8394    8.4091 C.3     1  UNL1        0.0727
     13 C          60.1500   87.5974   10.8474 C.3     1  UNL1        0.0991
     14 C          63.0826   84.2113   11.2763 C.ar    1  UNL1        0.0533
     15 C          62.6381   84.6503    9.9126 C.ar    1  UNL1        0.0042
     16 C          61.6606   85.7790    9.7696 C.ar    1  UNL1       -0.0028
     17 C          61.1275   86.4687   10.9903 C.ar    1  UNL1       -0.0061
     18 C          61.5720   86.0297   12.3540 C.ar    1  UNL1       -0.0028
     19 C          62.5495   84.9010   12.4970 C.ar    1  UNL1        0.0042
     20 C          65.1529   81.2221   12.8666 C.3     1  UNL1        0.1109
     21 N          64.1753   82.3509   12.7236 N.am    1  UNL1       -0.2992
     22 C          64.0601   83.0825   11.4193 C.2     1  UNL1        0.2459
     23 O          64.9224   82.6855   10.2579 O.2     1  UNL1       -0.2701
     24 H          63.6094   82.6114   13.4858 H       1  UNL1        0.1498
     25 C          59.6660   93.0179    1.8677 C.2     1  UNL1        0.2495
     26 O          59.5878   94.5155    1.8990 O.2     1  UNL1       -0.2698
     27 N          59.6751   92.2946    0.5536 N.am    1  UNL1       -0.2794
     28 H          59.7264   91.3117    0.5331 H       1  UNL1        0.1552
     29 C          59.6059   93.0690   -0.7291 C.ar    1  UNL1        0.0636
     30 C          60.7628   93.9254   -1.1515 C.ar    1  UNL1        0.0159
     31 C          60.6936   94.6998   -2.4343 C.ar    1  UNL1        0.0014
     32 C          59.4677   94.6179   -3.2947 C.ar    1  UNL1        0.0013
     33 C          58.3108   93.7616   -2.8723 C.ar    1  UNL1        0.0153
     34 C          58.3799   92.9871   -1.5895 C.ar    1  UNL1        0.0552
     35 N          57.2231   92.1308   -1.1672 N.pl3   1  UNL1       -0.3560
     36 H          56.4185   92.0771   -1.7319 H       1  UNL1        0.1424
     37 H          57.2685   91.6225   -0.3252 H       1  UNL1        0.1424
@<TRIPOS>BOND
     1    20    21    1
     2    21    22   am
     3    22    23    2
     4    22    14    1
     5    14    15   ar
     6    15    16   ar
     7    16    17   ar
     8    17    13    1
     9    13     7    1
    10     7     8    1
    11     8     9    1
    12     9    10    1
    13    10     1    1
    14     1     2   ar
    15     2     3   ar
    16     3     4   ar
    17     4    25    1
    18    25    26    2
    19    25    27   am
    20    27    29    1
    21    29    30   ar
    22    30    31   ar
    23    31    32   ar
    24    32    33   ar
    25    33    34   ar
    26    34    35    1
    27     4     5   ar
    28     5     6   ar
    29    10    11    1
    30    11    12    1
    31    17    18   ar
    32    18    19   ar
    33    19    14   ar
    34    12     7    1
    35     6     1   ar
    36    34    29   ar
    37    21    24    1
    38    27    28    1
    39    35    36    1
    40    35    37    1
