@<TRIPOS>MOLECULE
*****
 37 40 0 0 0
SMALL
GASTEIGER

@<TRIPOS>ATOM
      1 C          63.3729   90.5967   11.8899 C.ar    1  UNL1        0.0768
      2 N          63.5901   91.5639   10.7642 N.ar    1  UNL1       -0.2480
      3 C          64.5543   92.7013   10.9280 C.ar    1  UNL1        0.0812
      4 C          64.7714   93.6685    9.8023 C.ar    1  UNL1        0.0214
      5 C          65.7356   94.8058    9.9662 C.ar    1  UNL1        0.0312
      6 C          66.4827   94.9758   11.2557 C.ar    1  UNL1        0.1402
      7 F          67.4469   96.1132   11.4196 F       1  UNL1       -0.2042
      8 C          66.2656   94.0086   12.3814 C.ar    1  UNL1        0.0313
      9 C          65.3014   92.8713   12.2176 C.ar    1  UNL1        0.0243
     10 C          65.0842   91.9040   13.3433 C.ar    1  UNL1        0.0563
     11 C          64.1200   90.7667   13.1794 C.ar    1  UNL1        0.0196
     12 C          63.9028   89.7994   14.3052 C.ar    1  UNL1        0.0013
     13 C          63.1763   90.2386   15.5418 C.ar    1  UNL1        0.0000
     14 C          62.9591   89.2714   16.6675 C.ar    1  UNL1        0.0000
     15 C          63.4685   87.8649   16.5565 C.ar    1  UNL1        0.0000
     16 C          64.1950   87.4257   15.3199 C.ar    1  UNL1        0.0000
     17 C          64.4122   88.3929   14.1942 C.ar    1  UNL1        0.0000
     18 C          65.8313   92.0740   14.6329 C.2     1  UNL1        0.2492
     19 O          65.0939   92.4556   15.8821 O.2     1  UNL1       -0.2699
     20 N          67.3158   91.8624   14.6732 N.am    1  UNL1       -0.2726
     21 C          68.0628   92.0324   15.9627 C.3     1  UNL1        0.1152
     22 C          68.0531   91.4808   13.4239 C.3     1  UNL1        0.1152
     23 C          61.2182   89.3490   12.6318 C.3     1  UNL1        0.0278
     24 C          62.4087   89.4593   11.7260 C.3     1  UNL1        0.1109
     25 N          62.6351   88.4324   10.6564 N.pl3   1  UNL1       -0.3142
     26 H          63.4673   87.9065   10.6472 H       1  UNL1        0.1485
     27 C          61.5934   88.2066    9.6010 C.ar    1  UNL1        0.1429
     28 N          60.7279   89.3442    9.1461 N.ar    1  UNL1       -0.2084
     29 C          59.6862   89.1185    8.0906 C.ar    1  UNL1        0.2012
     30 N          59.5101   87.7553    7.4901 N.ar    1  UNL1       -0.2087
     31 C          60.3756   86.6178    7.9450 C.ar    1  UNL1        0.1396
     32 N          60.1994   85.2546    7.3444 N.pl3   1  UNL1       -0.3420
     33 C          61.4173   86.8434    9.0005 C.ar    1  UNL1        0.1308
     34 H          59.5158   85.1064    6.6517 H       1  UNL1        0.1437
     35 H          60.7675   84.5080    7.6430 H       1  UNL1        0.1437
     36 C          62.2828   85.7060    9.4554 C.1     1  UNL1        0.1061
     37 N          63.1483   84.5685    9.9102 N.1     1  UNL1       -0.1906
@<TRIPOS>BOND
     1    24    23    1
     2    24    25    1
     3    25    27    1
     4    27    28   ar
     5    28    29   ar
     6    29    30   ar
     7    30    31   ar
     8    31    32    1
     9    31    33   ar
    10    33    36    1
    11    36    37    3
    12    24     1    1
    13     1     2   ar
    14     2     3   ar
    15     3     4   ar
    16     4     5   ar
    17     5     6   ar
    18     6     7    1
    19     6     8   ar
    20     8     9   ar
    21     9    10   ar
    22    10    18    1
    23    18    19    2
    24    18    20   am
    25    20    21    1
    26    20    22    1
    27    10    11   ar
    28    11    12    1
    29    12    13   ar
    30    13    14   ar
    31    14    15   ar
    32    15    16   ar
    33    16    17   ar
    34    33    27   ar
    35    11     1   ar
    36    17    12   ar
    37     9     3   ar
    38    25    26    1
    39    32    34    1
    40    32    35    1
@<TRIPOS>MOLECULE
*****
 37 40 0 0 0
SMALL
GASTEIGER

@<TRIPOS>ATOM
      1 C          63.2740   90.2656   12.0957 C.ar    1  UNL1        0.0768
      2 N          63.4933   91.1862   10.9320 N.ar    1  UNL1       -0.2480
      3 C          64.4404   92.3426   11.0585 C.ar    1  UNL1        0.0812
      4 C          64.6596   93.2633    9.8948 C.ar    1  UNL1        0.0214
      5 C          65.6066   94.4195   10.0213 C.ar    1  UNL1        0.0312
      6 C          66.3345   94.6552   11.3116 C.ar    1  UNL1        0.1402
      7 F          67.2816   95.8115   11.4381 F       1  UNL1       -0.2042
      8 C          66.1152   93.7345   12.4753 C.ar    1  UNL1        0.0313
      9 C          65.1682   92.5782   12.3487 C.ar    1  UNL1        0.0243
     10 C          64.9489   91.6575   13.5125 C.ar    1  UNL1        0.0563
     11 C          64.0019   90.5012   13.3860 C.ar    1  UNL1        0.0196
     12 C          63.7826   89.5805   14.5497 C.ar    1  UNL1        0.0013
     13 C          62.9140   90.0118   15.6940 C.ar    1  UNL1        0.0000
     14 C          62.6947   89.0912   16.8577 C.ar    1  UNL1        0.0000
     15 C          63.3440   87.7392   16.8771 C.ar    1  UNL1        0.0000
     16 C          64.2127   87.3078   15.7328 C.ar    1  UNL1        0.0000
     17 C          64.4319   88.2285   14.5691 C.ar    1  UNL1        0.0000
     18 C          65.6768   91.8931   14.8027 C.2     1  UNL1        0.2492
     19 O          64.9087   92.2290   16.0466 O.2     1  UNL1       -0.2699
     20 N          67.1727   91.7928   14.8491 N.am    1  UNL1       -0.2726
     21 C          67.9006   92.0284   16.1394 C.3     1  UNL1        0.1152
     22 C          67.9408   91.4569   13.6053 C.3     1  UNL1        0.1152
     23 C          60.9083   89.3449   11.5429 C.3     1  UNL1        0.0278
     24 C          62.3270   89.1092   11.9692 C.3     1  UNL1        0.1109
     25 N          62.7986   87.7172   12.2690 N.pl3   1  UNL1       -0.3142
     26 H          63.1049   87.4858   13.1756 H       1  UNL1        0.1485
     27 C          62.8035   86.6779   11.1876 C.ar    1  UNL1        0.1429
     28 N          62.5330   87.0732    9.7661 N.ar    1  UNL1       -0.2084
     29 C          62.5379   86.0338    8.6846 C.ar    1  UNL1        0.2012
     30 N          62.8135   84.5991    9.0245 N.ar    1  UNL1       -0.2087
     31 C          63.0840   84.2037   10.4459 C.ar    1  UNL1        0.1396
     32 N          63.3596   82.7689   10.7859 N.pl3   1  UNL1       -0.3420
     33 C          63.0791   85.2431   11.5275 C.ar    1  UNL1        0.1308
     34 H          63.3628   82.0868   10.0760 H       1  UNL1        0.1437
     35 H          63.5371   82.5095   11.7188 H       1  UNL1        0.1437
     36 C          63.3496   84.8477   12.9489 C.1     1  UNL1        0.1061
     37 N          63.6202   84.4523   14.3703 N.1     1  UNL1       -0.1906
@<TRIPOS>BOND
     1    24    23    1
     2    24    25    1
     3    25    27    1
     4    27    28   ar
     5    28    29   ar
     6    29    30   ar
     7    30    31   ar
     8    31    32    1
     9    31    33   ar
    10    33    36    1
    11    36    37    3
    12    24     1    1
    13     1     2   ar
    14     2     3   ar
    15     3     4   ar
    16     4     5   ar
    17     5     6   ar
    18     6     7    1
    19     6     8   ar
    20     8     9   ar
    21     9    10   ar
    22    10    18    1
    23    18    19    2
    24    18    20   am
    25    20    21    1
    26    20    22    1
    27    10    11   ar
    28    11    12    1
    29    12    13   ar
    30    13    14   ar
    31    14    15   ar
    32    15    16   ar
    33    16    17   ar
    34    33    27   ar
    35    11     1   ar
    36    17    12   ar
    37     9     3   ar
    38    25    26    1
    39    32    34    1
    40    32    35    1
@<TRIPOS>MOLECULE
*****
 37 40 0 0 0
SMALL
GASTEIGER

@<TRIPOS>ATOM
      1 C          63.5403   87.4870   13.2793 C.ar    1  UNL1        0.0768
      2 N          64.1344   86.2247   13.8303 N.ar    1  UNL1       -0.2480
      3 C          63.8426   84.9088   13.1721 C.ar    1  UNL1        0.0812
      4 C          64.4367   83.6465   13.7230 C.ar    1  UNL1        0.0214
      5 C          64.1449   82.3306   13.0648 C.ar    1  UNL1        0.0312
      6 C          63.2589   82.2770   11.8557 C.ar    1  UNL1        0.1402
      7 F          62.9670   80.9611   11.1974 F       1  UNL1       -0.2042
      8 C          62.6647   83.5393   11.3047 C.ar    1  UNL1        0.0313
      9 C          62.9566   84.8552   11.9629 C.ar    1  UNL1        0.0243
     10 C          62.3624   86.1175   11.4119 C.ar    1  UNL1        0.0563
     11 C          62.6543   87.4334   12.0701 C.ar    1  UNL1        0.0196
     12 C          62.0601   88.6958   11.5192 C.ar    1  UNL1        0.0013
     13 C          60.7805   89.2330   12.0882 C.ar    1  UNL1        0.0000
     14 C          60.1863   90.4953   11.5373 C.ar    1  UNL1        0.0000
     15 C          60.8718   91.2203   10.4174 C.ar    1  UNL1        0.0000
     16 C          62.1515   90.6831    9.8483 C.ar    1  UNL1        0.0000
     17 C          62.7456   89.4208   10.3992 C.ar    1  UNL1        0.0000
     18 C          61.4764   86.0639   10.2027 C.2     1  UNL1        0.2492
     19 O          60.0117   86.3600   10.3325 O.2     1  UNL1       -0.2699
     20 N          62.0552   85.7142    8.8638 N.am    1  UNL1       -0.2726
     21 C          61.1692   85.6607    7.6546 C.3     1  UNL1        0.1152
     22 C          63.5199   85.4182    8.7340 C.3     1  UNL1        0.1152
     23 C          63.6767   88.9497   15.4222 C.3     1  UNL1        0.0278
     24 C          63.8321   88.8029   13.9375 C.3     1  UNL1        0.1109
     25 N          64.2793   89.9721   13.1111 N.pl3   1  UNL1       -0.3142
     26 H          64.0774   90.0000   12.1479 H       1  UNL1        0.1485
     27 C          65.0343   91.0986   13.7521 C.ar    1  UNL1        0.1429
     28 N          65.3456   91.0541   15.2188 N.ar    1  UNL1       -0.2084
     29 C          66.1005   92.1806   15.8598 C.ar    1  UNL1        0.2012
     30 N          66.5442   93.3517   15.0342 N.ar    1  UNL1       -0.2087
     31 C          66.2329   93.3963   13.5675 C.ar    1  UNL1        0.1396
     32 N          66.6765   94.5674   12.7419 N.pl3   1  UNL1       -0.3420
     33 C          65.4779   92.2697   12.9264 C.ar    1  UNL1        0.1308
     34 H          67.1720   95.3068   13.1626 H       1  UNL1        0.1437
     35 H          66.4722   94.5967   11.7793 H       1  UNL1        0.1437
     36 C          65.1666   92.3143   11.4598 C.1     1  UNL1        0.1061
     37 N          64.8553   92.3589    9.9932 N.1     1  UNL1       -0.1906
@<TRIPOS>BOND
     1    24    23    1
     2    24    25    1
     3    25    27    1
     4    27    28   ar
     5    28    29   ar
     6    29    30   ar
     7    30    31   ar
     8    31    32    1
     9    31    33   ar
    10    33    36    1
    11    36    37    3
    12    24     1    1
    13     1     2   ar
    14     2     3   ar
    15     3     4   ar
    16     4     5   ar
    17     5     6   ar
    18     6     7    1
    19     6     8   ar
    20     8     9   ar
    21     9    10   ar
    22    10    18    1
    23    18    19    2
    24    18    20   am
    25    20    21    1
    26    20    22    1
    27    10    11   ar
    28    11    12    1
    29    12    13   ar
    30    13    14   ar
    31    14    15   ar
    32    15    16   ar
    33    16    17   ar
    34    33    27   ar
    35    11     1   ar
    36    17    12   ar
    37     9     3   ar
    38    25    26    1
    39    32    34    1
    40    32    35    1
@<TRIPOS>MOLECULE
*****
 37 40 0 0 0
SMALL
GASTEIGER

@<TRIPOS>ATOM
      1 C          62.6127   86.6506   11.2238 C.ar    1  UNL1        0.0768
      2 N          63.5252   86.6868   12.4138 N.ar    1  UNL1       -0.2480
      3 C          63.6024   87.9214   13.2623 C.ar    1  UNL1        0.0812
      4 C          64.5149   87.9577   14.4523 C.ar    1  UNL1        0.0214
      5 C          64.5921   89.1922   15.3008 C.ar    1  UNL1        0.0312
      6 C          63.7569   90.3905   14.9593 C.ar    1  UNL1        0.1402
      7 F          63.8342   91.6250   15.8078 F       1  UNL1       -0.2042
      8 C          62.8445   90.3542   13.7693 C.ar    1  UNL1        0.0313
      9 C          62.7672   89.1197   12.9208 C.ar    1  UNL1        0.0243
     10 C          61.8548   89.0833   11.7308 C.ar    1  UNL1        0.0563
     11 C          61.7775   87.8488   10.8823 C.ar    1  UNL1        0.0196
     12 C          60.8650   87.8125    9.6923 C.ar    1  UNL1        0.0013
     13 C          60.7462   89.0134    8.8014 C.ar    1  UNL1        0.0000
     14 C          59.8338   88.9771    7.6114 C.ar    1  UNL1        0.0000
     15 C          59.0402   87.7399    7.3123 C.ar    1  UNL1        0.0000
     16 C          59.1590   86.5390    8.2032 C.ar    1  UNL1        0.0000
     17 C          60.0714   86.5753    9.3932 C.ar    1  UNL1        0.0000
     18 C          61.0196   90.2816   11.3893 C.2     1  UNL1        0.2492
     19 O          61.6255   91.4279   10.6352 O.2     1  UNL1       -0.2699
     20 N          59.5783   90.3335   11.8019 N.am    1  UNL1       -0.2726
     21 C          58.7431   91.5317   11.4604 C.3     1  UNL1        0.1152
     22 C          58.9724   89.1872   12.5561 C.3     1  UNL1        0.1152
     23 C          63.0425   85.4431    8.9639 C.3     1  UNL1        0.0278
     24 C          62.5354   85.4160   10.3753 C.3     1  UNL1        0.1109
     25 N          61.9511   84.1544   10.9382 N.pl3   1  UNL1       -0.3142
     26 H          61.3126   83.6272   10.4056 H       1  UNL1        0.1485
     27 C          62.3397   83.6960   12.3126 C.ar    1  UNL1        0.1429
     28 N          62.2010   84.6267   13.4808 N.ar    1  UNL1       -0.2084
     29 C          62.5895   84.1684   14.8551 C.ar    1  UNL1        0.2012
     30 N          63.1167   82.7793   15.0614 N.ar    1  UNL1       -0.2087
     31 C          63.2554   81.8486   13.8932 C.ar    1  UNL1        0.1396
     32 N          63.7826   80.4595   14.0995 N.pl3   1  UNL1       -0.3420
     33 C          62.8669   82.3069   12.5188 C.ar    1  UNL1        0.1308
     34 H          64.0376   80.1587   15.0015 H       1  UNL1        0.1437
     35 H          63.8736   79.8487   13.3328 H       1  UNL1        0.1437
     36 C          63.0055   81.3762   11.3507 C.1     1  UNL1        0.1061
     37 N          63.1442   80.4455   10.1826 N.1     1  UNL1       -0.1906
@<TRIPOS>BOND
     1    24    23    1
     2    24    25    1
     3    25    27    1
     4    27    28   ar
     5    28    29   ar
     6    29    30   ar
     7    30    31   ar
     8    31    32    1
     9    31    33   ar
    10    33    36    1
    11    36    37    3
    12    24     1    1
    13     1     2   ar
    14     2     3   ar
    15     3     4   ar
    16     4     5   ar
    17     5     6   ar
    18     6     7    1
    19     6     8   ar
    20     8     9   ar
    21     9    10   ar
    22    10    18    1
    23    18    19    2
    24    18    20   am
    25    20    21    1
    26    20    22    1
    27    10    11   ar
    28    11    12    1
    29    12    13   ar
    30    13    14   ar
    31    14    15   ar
    32    15    16   ar
    33    16    17   ar
    34    33    27   ar
    35    11     1   ar
    36    17    12   ar
    37     9     3   ar
    38    25    26    1
    39    32    34    1
    40    32    35    1
@<TRIPOS>MOLECULE
*****
 37 40 0 0 0
SMALL
GASTEIGER

@<TRIPOS>ATOM
      1 C          62.8750   86.5115   11.8349 C.ar    1  UNL1        0.0768
      2 N          62.9619   87.9913   11.6058 N.ar    1  UNL1       -0.2480
      3 C          63.5018   88.8864   12.6816 C.ar    1  UNL1        0.0812
      4 C          63.5887   90.3662   12.4525 C.ar    1  UNL1        0.0214
      5 C          64.1286   91.2613   13.5282 C.ar    1  UNL1        0.0312
      6 C          64.5815   90.6765   14.8332 C.ar    1  UNL1        0.1402
      7 F          65.1214   91.5717   15.9090 F       1  UNL1       -0.2042
      8 C          64.4946   89.1967   15.0623 C.ar    1  UNL1        0.0313
      9 C          63.9548   88.3017   13.9865 C.ar    1  UNL1        0.0243
     10 C          63.8678   86.8218   14.2157 C.ar    1  UNL1        0.0563
     11 C          63.3280   85.9267   13.1399 C.ar    1  UNL1        0.0196
     12 C          63.2411   84.4468   13.3690 C.ar    1  UNL1        0.0013
     13 C          62.0624   83.8681   14.0942 C.ar    1  UNL1        0.0000
     14 C          61.9754   82.3883   14.3233 C.ar    1  UNL1        0.0000
     15 C          63.0671   81.4872   13.8272 C.ar    1  UNL1        0.0000
     16 C          64.2458   82.0659   13.1021 C.ar    1  UNL1        0.0000
     17 C          64.3328   83.5457   12.8729 C.ar    1  UNL1        0.0000
     18 C          64.3208   86.2370   15.5206 C.2     1  UNL1        0.2492
     19 O          65.7031   85.6686   15.6482 O.2     1  UNL1       -0.2699
     20 N          63.3915   86.2207   16.6980 N.am    1  UNL1       -0.2726
     21 C          63.8445   85.6359   18.0029 C.3     1  UNL1        0.1152
     22 C          62.0093   86.7891   16.5704 C.3     1  UNL1        0.1152
     23 C          63.2184   84.5772   10.1347 C.3     1  UNL1        0.0278
     24 C          62.3351   85.6163   10.7591 C.3     1  UNL1        0.1109
     25 N          60.9119   85.7604   10.3077 N.pl3   1  UNL1       -0.3142
     26 H          60.2960   84.9948   10.3695 H       1  UNL1        0.1485
     27 C          60.4271   87.0709    9.7623 C.ar    1  UNL1        0.1429
     28 N          60.2399   88.2423   10.6804 N.ar    1  UNL1       -0.2084
     29 C          59.7551   89.5527   10.1349 C.ar    1  UNL1        0.2012
     30 N          59.4576   89.6919    8.6713 N.ar    1  UNL1       -0.2087
     31 C          59.6448   88.5207    7.7532 C.ar    1  UNL1        0.1396
     32 N          59.3473   88.6599    6.2896 N.pl3   1  UNL1       -0.3420
     33 C          60.1296   87.2101    8.2987 C.ar    1  UNL1        0.1308
     34 H          59.0291   89.5200    5.9316 H       1  UNL1        0.1437
     35 H          59.4702   87.8911    5.6870 H       1  UNL1        0.1437
     36 C          60.3169   86.0388    7.3805 C.1     1  UNL1        0.1061
     37 N          60.5041   84.8675    6.4624 N.1     1  UNL1       -0.1906
@<TRIPOS>BOND
     1    24    23    1
     2    24    25    1
     3    25    27    1
     4    27    28   ar
     5    28    29   ar
     6    29    30   ar
     7    30    31   ar
     8    31    32    1
     9    31    33   ar
    10    33    36    1
    11    36    37    3
    12    24     1    1
    13     1     2   ar
    14     2     3   ar
    15     3     4   ar
    16     4     5   ar
    17     5     6   ar
    18     6     7    1
    19     6     8   ar
    20     8     9   ar
    21     9    10   ar
    22    10    18    1
    23    18    19    2
    24    18    20   am
    25    20    21    1
    26    20    22    1
    27    10    11   ar
    28    11    12    1
    29    12    13   ar
    30    13    14   ar
    31    14    15   ar
    32    15    16   ar
    33    16    17   ar
    34    33    27   ar
    35    11     1   ar
    36    17    12   ar
    37     9     3   ar
    38    25    26    1
    39    32    34    1
    40    32    35    1
@<TRIPOS>MOLECULE
*****
 37 40 0 0 0
SMALL
GASTEIGER

@<TRIPOS>ATOM
      1 C          62.8398   87.4301   11.7500 C.ar    1  UNL1        0.0768
      2 N          63.4590   87.5729   13.1087 N.ar    1  UNL1       -0.2480
      3 C          63.7941   86.3514   13.9123 C.ar    1  UNL1        0.0812
      4 C          64.4134   86.4941   15.2710 C.ar    1  UNL1        0.0214
      5 C          64.7484   85.2726   16.0746 C.ar    1  UNL1        0.0312
      6 C          64.4642   83.9084   15.5194 C.ar    1  UNL1        0.1402
      7 F          64.7993   82.6869   16.3230 F       1  UNL1       -0.2042
      8 C          63.8449   83.7657   14.1607 C.ar    1  UNL1        0.0313
      9 C          63.5099   84.9872   13.3572 C.ar    1  UNL1        0.0243
     10 C          62.8906   84.8445   11.9984 C.ar    1  UNL1        0.0563
     11 C          62.5556   86.0659   11.1949 C.ar    1  UNL1        0.0196
     12 C          61.9363   85.9232    9.8361 C.ar    1  UNL1        0.0013
     13 C          62.7529   85.4029    8.6906 C.ar    1  UNL1        0.0000
     14 C          62.1337   85.2602    7.3319 C.ar    1  UNL1        0.0000
     15 C          60.6978   85.6378    7.1187 C.ar    1  UNL1        0.0000
     16 C          59.8811   86.1582    8.2642 C.ar    1  UNL1        0.0000
     17 C          60.5004   86.3009    9.6229 C.ar    1  UNL1        0.0000
     18 C          62.6064   83.4803   11.4433 C.2     1  UNL1        0.2492
     19 O          61.2584   82.8542   11.6454 O.2     1  UNL1       -0.2699
     20 N          63.6703   82.7421   10.6860 N.am    1  UNL1       -0.2726
     21 C          63.3861   81.3780   10.1308 C.3     1  UNL1        0.1152
     22 C          65.0183   83.3682   10.4839 C.3     1  UNL1        0.1152
     23 C          62.3683   88.5545    9.4558 C.3     1  UNL1        0.0278
     24 C          62.5047   88.6516   10.9464 C.3     1  UNL1        0.1109
     25 N          62.3060   89.9701   11.6334 N.pl3   1  UNL1       -0.3142
     26 H          61.4191   90.2135   11.9847 H       1  UNL1        0.1485
     27 C          63.4586   90.9179   11.7852 C.ar    1  UNL1        0.1429
     28 N          64.0257   91.6083   10.5803 N.ar    1  UNL1       -0.2084
     29 C          65.1783   92.5561   10.7321 C.ar    1  UNL1        0.2012
     30 N          65.7640   92.8135   12.0888 N.ar    1  UNL1       -0.2087
     31 C          65.1971   92.1231   13.2937 C.ar    1  UNL1        0.1396
     32 N          65.7828   92.3804   14.6504 N.pl3   1  UNL1       -0.3420
     33 C          64.0444   91.1753   13.1419 C.ar    1  UNL1        0.1308
     34 H          66.5393   93.0025   14.7501 H       1  UNL1        0.1437
     35 H          65.4107   91.9273   15.4413 H       1  UNL1        0.1437
     36 C          63.4774   90.4849   14.3469 C.1     1  UNL1        0.1061
     37 N          62.9105   89.7945   15.5518 N.1     1  UNL1       -0.1906
@<TRIPOS>BOND
     1    24    23    1
     2    24    25    1
     3    25    27    1
     4    27    28   ar
     5    28    29   ar
     6    29    30   ar
     7    30    31   ar
     8    31    32    1
     9    31    33   ar
    10    33    36    1
    11    36    37    3
    12    24     1    1
    13     1     2   ar
    14     2     3   ar
    15     3     4   ar
    16     4     5   ar
    17     5     6   ar
    18     6     7    1
    19     6     8   ar
    20     8     9   ar
    21     9    10   ar
    22    10    18    1
    23    18    19    2
    24    18    20   am
    25    20    21    1
    26    20    22    1
    27    10    11   ar
    28    11    12    1
    29    12    13   ar
    30    13    14   ar
    31    14    15   ar
    32    15    16   ar
    33    16    17   ar
    34    33    27   ar
    35    11     1   ar
    36    17    12   ar
    37     9     3   ar
    38    25    26    1
    39    32    34    1
    40    32    35    1
@<TRIPOS>MOLECULE
*****
 37 40 0 0 0
SMALL
GASTEIGER

@<TRIPOS>ATOM
      1 C          63.3237   85.5162   11.7899 C.ar    1  UNL1        0.0768
      2 N          63.8776   85.9006   13.1298 N.ar    1  UNL1       -0.2480
      3 C          63.7717   87.3191   13.6062 C.ar    1  UNL1        0.0812
      4 C          64.3256   87.7035   14.9461 C.ar    1  UNL1        0.0214
      5 C          64.2198   89.1219   15.4224 C.ar    1  UNL1        0.0312
      6 C          63.5601   90.1559   14.5588 C.ar    1  UNL1        0.1402
      7 F          63.4543   91.5743   15.0352 F       1  UNL1       -0.2042
      8 C          63.0062   89.7714   13.2189 C.ar    1  UNL1        0.0313
      9 C          63.1121   88.3530   12.7426 C.ar    1  UNL1        0.0243
     10 C          62.5582   87.9685   11.4026 C.ar    1  UNL1        0.0563
     11 C          62.6640   86.5501   10.9263 C.ar    1  UNL1        0.0196
     12 C          62.1102   86.1656    9.5863 C.ar    1  UNL1        0.0013
     13 C          60.6546   86.3725    9.2891 C.ar    1  UNL1        0.0000
     14 C          60.1007   85.9880    7.9492 C.ar    1  UNL1        0.0000
     15 C          61.0024   85.3967    6.9066 C.ar    1  UNL1        0.0000
     16 C          62.4580   85.1898    7.2038 C.ar    1  UNL1        0.0000
     17 C          63.0119   85.5742    8.5437 C.ar    1  UNL1        0.0000
     18 C          61.8985   89.0025   10.5390 C.2     1  UNL1        0.2492
     19 O          62.6851   89.6972    9.4673 O.2     1  UNL1       -0.2699
     20 N          60.4522   89.3416   10.7472 N.am    1  UNL1       -0.2726
     21 C          59.7925   90.3756    9.8836 C.3     1  UNL1        0.1152
     22 C          59.6657   88.6469   11.8189 C.3     1  UNL1        0.1152
     23 C          64.7406   83.5719   10.8090 C.3     1  UNL1        0.0278
     24 C          63.4295   84.0977   11.3135 C.3     1  UNL1        0.1109
     25 N          62.2243   83.2052   11.3417 N.pl3   1  UNL1       -0.3142
     26 H          61.3344   83.5732   11.1369 H       1  UNL1        0.1485
     27 C          62.3750   81.7521   11.6818 C.ar    1  UNL1        0.1429
     28 N          62.5525   80.7404   10.5886 N.ar    1  UNL1       -0.2084
     29 C          62.7031   79.2873   10.9288 C.ar    1  UNL1        0.2012
     30 N          62.6763   78.8458   12.3621 N.ar    1  UNL1       -0.2087
     31 C          62.4988   79.8575   13.4553 C.ar    1  UNL1        0.1396
     32 N          62.4719   79.4160   14.8886 N.pl3   1  UNL1       -0.3420
     33 C          62.3481   81.3107   13.1151 C.ar    1  UNL1        0.1308
     34 H          62.5708   78.4623   15.1119 H       1  UNL1        0.1437
     35 H          62.3554   80.0800   15.6061 H       1  UNL1        0.1437
     36 C          62.1706   82.3223   14.2083 C.1     1  UNL1        0.1061
     37 N          61.9931   83.3340   15.3015 N.1     1  UNL1       -0.1906
@<TRIPOS>BOND
     1    24    23    1
     2    24    25    1
     3    25    27    1
     4    27    28   ar
     5    28    29   ar
     6    29    30   ar
     7    30    31   ar
     8    31    32    1
     9    31    33   ar
    10    33    36    1
    11    36    37    3
    12    24     1    1
    13     1     2   ar
    14     2     3   ar
    15     3     4   ar
    16     4     5   ar
    17     5     6   ar
    18     6     7    1
    19     6     8   ar
    20     8     9   ar
    21     9    10   ar
    22    10    18    1
    23    18    19    2
    24    18    20   am
    25    20    21    1
    26    20    22    1
    27    10    11   ar
    28    11    12    1
    29    12    13   ar
    30    13    14   ar
    31    14    15   ar
    32    15    16   ar
    33    16    17   ar
    34    33    27   ar
    35    11     1   ar
    36    17    12   ar
    37     9     3   ar
    38    25    26    1
    39    32    34    1
    40    32    35    1
@<TRIPOS>MOLECULE
*****
 37 40 0 0 0
SMALL
GASTEIGER

@<TRIPOS>ATOM
      1 C          63.3673   89.1909   12.2743 C.ar    1  UNL1        0.0768
      2 N          63.5264   90.0680   11.0680 N.ar    1  UNL1       -0.2480
      3 C          64.2412   91.3816   11.1847 C.ar    1  UNL1        0.0812
      4 C          64.4003   92.2587    9.9784 C.ar    1  UNL1        0.0214
      5 C          65.1151   93.5722   10.0952 C.ar    1  UNL1        0.0312
      6 C          65.6708   94.0086   11.4183 C.ar    1  UNL1        0.1402
      7 F          66.3857   95.3222   11.5351 F       1  UNL1       -0.2042
      8 C          65.5117   93.1315   12.6247 C.ar    1  UNL1        0.0313
      9 C          64.7969   91.8180   12.5079 C.ar    1  UNL1        0.0243
     10 C          64.6378   90.9408   13.7143 C.ar    1  UNL1        0.0563
     11 C          63.9230   89.6273   13.5975 C.ar    1  UNL1        0.0196
     12 C          63.7639   88.7501   14.8038 C.ar    1  UNL1        0.0013
     13 C          62.9487   89.2214   15.9715 C.ar    1  UNL1        0.0000
     14 C          62.7896   88.3442   17.1778 C.ar    1  UNL1        0.0000
     15 C          63.4456   86.9959   17.2165 C.ar    1  UNL1        0.0000
     16 C          64.2608   86.5247   16.0489 C.ar    1  UNL1        0.0000
     17 C          64.4199   87.4018   14.8425 C.ar    1  UNL1        0.0000
     18 C          65.1935   91.3772   15.0374 C.2     1  UNL1        0.2492
     19 O          64.2715   91.6159   16.1962 O.2     1  UNL1       -0.2699
     20 N          66.6714   91.5749   15.2018 N.am    1  UNL1       -0.2726
     21 C          67.2271   92.0113   16.5249 C.3     1  UNL1        0.1152
     22 C          67.5935   91.3362   14.0430 C.3     1  UNL1        0.1152
     23 C          63.3901   86.5967   12.4142 C.3     1  UNL1        0.0278
     24 C          62.6525   87.8773   12.1575 C.3     1  UNL1        0.1109
     25 N          61.2001   87.8444   11.7842 N.pl3   1  UNL1       -0.3142
     26 H          60.5106   87.9459   12.4796 H       1  UNL1        0.1485
     27 C          60.7982   87.6570   10.3513 C.ar    1  UNL1        0.1429
     28 N          61.0285   86.3385    9.6740 N.ar    1  UNL1       -0.2084
     29 C          60.6266   86.1510    8.2411 C.ar    1  UNL1        0.2012
     30 N          59.9943   87.2820    7.4854 N.ar    1  UNL1       -0.2087
     31 C          59.7639   88.6004    8.1626 C.ar    1  UNL1        0.1396
     32 N          59.1316   89.7314    7.4068 N.pl3   1  UNL1       -0.3420
     33 C          60.1659   88.7879    9.5956 C.ar    1  UNL1        0.1308
     34 H          58.8678   89.6083    6.4664 H       1  UNL1        0.1437
     35 H          58.9804   90.5967    7.8513 H       1  UNL1        0.1437
     36 C          59.9355   90.1064   10.2727 C.1     1  UNL1        0.1061
     37 N          59.7051   91.4248   10.9499 N.1     1  UNL1       -0.1906
@<TRIPOS>BOND
     1    24    23    1
     2    24    25    1
     3    25    27    1
     4    27    28   ar
     5    28    29   ar
     6    29    30   ar
     7    30    31   ar
     8    31    32    1
     9    31    33   ar
    10    33    36    1
    11    36    37    3
    12    24     1    1
    13     1     2   ar
    14     2     3   ar
    15     3     4   ar
    16     4     5   ar
    17     5     6   ar
    18     6     7    1
    19     6     8   ar
    20     8     9   ar
    21     9    10   ar
    22    10    18    1
    23    18    19    2
    24    18    20   am
    25    20    21    1
    26    20    22    1
    27    10    11   ar
    28    11    12    1
    29    12    13   ar
    30    13    14   ar
    31    14    15   ar
    32    15    16   ar
    33    16    17   ar
    34    33    27   ar
    35    11     1   ar
    36    17    12   ar
    37     9     3   ar
    38    25    26    1
    39    32    34    1
    40    32    35    1
@<TRIPOS>MOLECULE
*****
 37 40 0 0 0
SMALL
GASTEIGER

@<TRIPOS>ATOM
      1 C          63.5119   86.8270   12.9547 C.ar    1  UNL1        0.0768
      2 N          64.0794   85.4967   13.3521 N.ar    1  UNL1       -0.2480
      3 C          63.7655   84.2747   12.5407 C.ar    1  UNL1        0.0812
      4 C          64.3331   82.9443   12.9382 C.ar    1  UNL1        0.0214
      5 C          64.0192   81.7224   12.1268 C.ar    1  UNL1        0.0312
      6 C          63.1377   81.8309   10.9180 C.ar    1  UNL1        0.1402
      7 F          62.8239   80.6089   10.1066 F       1  UNL1       -0.2042
      8 C          62.5702   83.1612   10.5205 C.ar    1  UNL1        0.0313
      9 C          62.8841   84.3831   11.3319 C.ar    1  UNL1        0.0243
     10 C          62.3165   85.7136   10.9344 C.ar    1  UNL1        0.0563
     11 C          62.6304   86.9355   11.7458 C.ar    1  UNL1        0.0196
     12 C          62.0629   88.2659   11.3484 C.ar    1  UNL1        0.0013
     13 C          62.8176   89.1503   10.4007 C.ar    1  UNL1        0.0000
     14 C          62.2502   90.4807   10.0032 C.ar    1  UNL1        0.0000
     15 C          60.9279   90.9267   10.5535 C.ar    1  UNL1        0.0000
     16 C          60.1732   90.0422   11.5012 C.ar    1  UNL1        0.0000
     17 C          60.7407   88.7118   11.8986 C.ar    1  UNL1        0.0000
     18 C          61.4351   85.8220    9.7256 C.2     1  UNL1        0.2492
     19 O          59.9900   86.1924    9.8819 O.2     1  UNL1       -0.2699
     20 N          61.9989   85.5600    8.3604 N.am    1  UNL1       -0.2726
     21 C          61.1174   85.6685    7.1515 C.3     1  UNL1        0.1152
     22 C          63.4439   85.1896    8.2041 C.3     1  UNL1        0.1152
     23 C          64.5825   87.9196   15.0547 C.3     1  UNL1        0.0278
     24 C          63.8257   88.0490   13.7661 C.3     1  UNL1        0.1109
     25 N          63.3829   89.4003   13.2888 N.pl3   1  UNL1       -0.3142
     26 H          62.5241   89.4989   12.8176 H       1  UNL1        0.1485
     27 C          64.2485   90.6014   13.5295 C.ar    1  UNL1        0.1429
     28 N          64.9619   91.2538   12.3825 N.ar    1  UNL1       -0.2084
     29 C          65.8275   92.4549   12.6231 C.ar    1  UNL1        0.2012
     30 N          65.9798   93.0038   14.0108 N.ar    1  UNL1       -0.2087
     31 C          65.2665   92.3514   15.1578 C.ar    1  UNL1        0.1396
     32 N          65.4188   92.9003   16.5455 N.pl3   1  UNL1       -0.3420
     33 C          64.4008   91.1502   14.9171 C.ar    1  UNL1        0.1308
     34 H          65.9869   93.6886   16.7034 H       1  UNL1        0.1437
     35 H          64.9506   92.4721   17.2983 H       1  UNL1        0.1437
     36 C          63.6875   90.4979   16.0641 C.1     1  UNL1        0.1061
     37 N          62.9742   89.8456   17.2111 N.1     1  UNL1       -0.1906
@<TRIPOS>BOND
     1    24    23    1
     2    24    25    1
     3    25    27    1
     4    27    28   ar
     5    28    29   ar
     6    29    30   ar
     7    30    31   ar
     8    31    32    1
     9    31    33   ar
    10    33    36    1
    11    36    37    3
    12    24     1    1
    13     1     2   ar
    14     2     3   ar
    15     3     4   ar
    16     4     5   ar
    17     5     6   ar
    18     6     7    1
    19     6     8   ar
    20     8     9   ar
    21     9    10   ar
    22    10    18    1
    23    18    19    2
    24    18    20   am
    25    20    21    1
    26    20    22    1
    27    10    11   ar
    28    11    12    1
    29    12    13   ar
    30    13    14   ar
    31    14    15   ar
    32    15    16   ar
    33    16    17   ar
    34    33    27   ar
    35    11     1   ar
    36    17    12   ar
    37     9     3   ar
    38    25    26    1
    39    32    34    1
    40    32    35    1
