@<TRIPOS>MOLECULE
*****
 28 31 0 0 0
SMALL
GASTEIGER

@<TRIPOS>ATOM
      1 C          62.2994   89.7826   12.6035 C.3     1  UNL1        0.1318
      2 C          60.2638   88.5144    8.4945 C.3     1  UNL1        0.0222
      3 C          61.0181   87.6445    9.4559 C.3     1  UNL1        0.0842
      4 C          61.2785   86.1758    9.2983 C.3     1  UNL1        0.0478
      5 C          62.0659   85.7142   10.4887 C.ar    1  UNL1       -0.0046
      6 C          62.6060   84.3691   10.8746 C.ar    1  UNL1        0.0267
      7 C          63.3724   84.2075   12.1538 C.ar    1  UNL1        0.1399
      8 F          63.9126   82.8624   12.5398 F       1  UNL1       -0.2042
      9 C          63.5986   85.3911   13.0472 C.ar    1  UNL1        0.0309
     10 C          63.0584   86.7361   12.6613 C.ar    1  UNL1        0.0169
     11 C          62.2921   86.8977   11.3821 C.ar    1  UNL1        0.0500
     12 N          61.6445   88.0907   10.7438 N.am    1  UNL1       -0.2599
     13 C          61.6266   89.4851   11.2963 C.2     1  UNL1        0.2353
     14 O          60.9357   90.5821   10.5416 O.2     1  UNL1       -0.2741
     15 C          63.4801   90.7068   12.6461 C.ar    1  UNL1        0.0772
     16 N          64.1241   91.3695   11.4645 N.ar    1  UNL1       -0.2279
     17 C          65.2661   92.2028   11.9659 C.ar    1  UNL1        0.1629
     18 S          65.3280   92.0551   13.4574 S.2     1  UNL1       -0.0507
     19 C          64.2241   91.1305   13.8777 C.ar    1  UNL1        0.0601
     20 N          66.1850   93.0373   11.1238 N.pl3   1  UNL1       -0.2830
     21 C          66.0458   94.5308   11.1159 C.3     1  UNL1        0.1247
     22 C          66.9647   95.3653   10.2738 C.3     1  UNL1        0.1636
     23 O          68.0228   94.7063    9.4395 O.3     1  UNL1       -0.3501
     24 C          68.1620   93.2128    9.4473 C.3     1  UNL1        0.1636
     25 C          67.2431   92.3783   10.2894 C.3     1  UNL1        0.1247
     26 C          63.9180   90.7044   15.2830 C.2     1  UNL1        0.0801
     27 O          63.8497   89.2459   15.6265 O.co2   1  UNL1       -0.5440
     28 O          63.6803   91.7369   16.3448 O.co2   1  UNL1       -0.5440
@<TRIPOS>UNITY_ATOM_ATTR
27 1
charge -1
@<TRIPOS>BOND
     1     2     3    1
     2     3     4    1
     3     4     5    1
     4     5     6   ar
     5     6     7   ar
     6     7     8    1
     7     7     9   ar
     8     9    10   ar
     9    10    11   ar
    10    11    12    1
    11    12    13   am
    12    13    14    2
    13    13     1    1
    14     1    15    1
    15    15    16   ar
    16    16    17   ar
    17    17    20    1
    18    20    21    1
    19    21    22    1
    20    22    23    1
    21    23    24    1
    22    24    25    1
    23    17    18   ar
    24    18    19   ar
    25    19    26    1
    26    26    27   ar
    27    26    28   ar
    28    12     3    1
    29    19    15   ar
    30    11     5   ar
    31    25    20    1
@<TRIPOS>MOLECULE
*****
 28 31 0 0 0
SMALL
GASTEIGER

@<TRIPOS>ATOM
      1 C          62.4726   89.8022   12.2421 C.3     1  UNL1        0.1318
      2 C          63.0524   85.1122   11.6908 C.3     1  UNL1        0.0222
      3 C          62.2649   86.0511   10.8257 C.3     1  UNL1        0.0842
      4 C          61.4936   85.6782    9.5944 C.3     1  UNL1        0.0478
      5 C          60.8623   86.9242    9.0477 C.ar    1  UNL1       -0.0046
      6 C          59.9897   87.1657    7.8518 C.ar    1  UNL1        0.0267
      7 C          59.4983   88.5503    7.5493 C.ar    1  UNL1        0.1399
      8 F          58.6257   88.7918    6.3534 F       1  UNL1       -0.2042
      9 C          59.8795   89.6933    8.4428 C.ar    1  UNL1        0.0309
     10 C          60.7521   89.4518    9.6386 C.ar    1  UNL1        0.0169
     11 C          61.2435   88.0673    9.9411 C.ar    1  UNL1        0.0500
     12 N          62.1103   87.5276   11.0400 N.am    1  UNL1       -0.2599
     13 C          62.7162   88.3246   12.1570 C.2     1  UNL1        0.2353
     14 O          63.5658   87.6439   13.1890 O.2     1  UNL1       -0.2741
     15 C          63.6325   90.7519   12.2928 C.ar    1  UNL1        0.0772
     16 N          64.2682   91.4308   11.1160 N.ar    1  UNL1       -0.2279
     17 C          65.3889   92.2881   11.6251 C.ar    1  UNL1        0.1629
     18 S          65.4458   92.1390   13.1166 S.2     1  UNL1       -0.0507
     19 C          64.3602   91.1895   13.5293 C.ar    1  UNL1        0.0601
     20 N          66.2938   93.1441   10.7895 N.pl3   1  UNL1       -0.2830
     21 C          66.0579   94.6229   10.7026 C.3     1  UNL1        0.1247
     22 C          66.9628   95.4790    9.8670 C.3     1  UNL1        0.1636
     23 O          68.1037   94.8562    9.1182 O.3     1  UNL1       -0.3501
     24 C          68.3396   93.3774    9.2051 C.3     1  UNL1        0.1636
     25 C          67.4346   92.5214   10.0407 C.3     1  UNL1        0.1247
     26 C          64.0559   90.7542   14.9321 C.2     1  UNL1        0.0801
     27 O          64.2480   89.3210   15.3309 O.co2   1  UNL1       -0.5440
     28 O          63.5596   91.7521   15.9360 O.co2   1  UNL1       -0.5440
@<TRIPOS>UNITY_ATOM_ATTR
27 1
charge -1
@<TRIPOS>BOND
     1     2     3    1
     2     3     4    1
     3     4     5    1
     4     5     6   ar
     5     6     7   ar
     6     7     8    1
     7     7     9   ar
     8     9    10   ar
     9    10    11   ar
    10    11    12    1
    11    12    13   am
    12    13    14    2
    13    13     1    1
    14     1    15    1
    15    15    16   ar
    16    16    17   ar
    17    17    20    1
    18    20    21    1
    19    21    22    1
    20    22    23    1
    21    23    24    1
    22    24    25    1
    23    17    18   ar
    24    18    19   ar
    25    19    26    1
    26    26    27   ar
    27    26    28   ar
    28    12     3    1
    29    19    15   ar
    30    11     5   ar
    31    25    20    1
@<TRIPOS>MOLECULE
*****
 28 31 0 0 0
SMALL
GASTEIGER

@<TRIPOS>ATOM
      1 C          63.9136   90.6130   13.0695 C.3     1  UNL1        0.1318
      2 C          61.4558   88.3933    9.6538 C.3     1  UNL1        0.0222
      3 C          62.1450   87.7825   10.8378 C.3     1  UNL1        0.0842
      4 C          62.1897   86.3217   11.1752 C.3     1  UNL1        0.0478
      5 C          62.9829   86.1617   12.4383 C.ar    1  UNL1       -0.0046
      6 C          63.3571   84.9518   13.2420 C.ar    1  UNL1        0.0267
      7 C          64.1767   85.1039   14.4890 C.ar    1  UNL1        0.1399
      8 F          64.5509   83.8939   15.2929 F       1  UNL1       -0.2042
      9 C          64.6222   86.4659   14.9322 C.ar    1  UNL1        0.0309
     10 C          64.2481   87.6758   14.1284 C.ar    1  UNL1        0.0169
     11 C          63.4285   87.5237   12.8815 C.ar    1  UNL1        0.0500
     12 N          62.9106   88.5254   11.8923 N.am    1  UNL1       -0.2599
     13 C          63.1214   90.0095   11.9480 C.2     1  UNL1        0.2353
     14 O          62.5398   90.8901   10.8819 O.2     1  UNL1       -0.2741
     15 C          64.8436   91.7585   12.7993 C.ar    1  UNL1        0.0772
     16 N          65.0538   92.4298   11.4745 N.ar    1  UNL1       -0.2279
     17 C          66.0667   93.5200   11.6628 C.ar    1  UNL1        0.1629
     18 S          66.4825   93.5225   13.1041 S.2     1  UNL1       -0.0507
     19 C          65.7265   92.4338   13.8065 C.ar    1  UNL1        0.0601
     20 N          66.5747   94.4453   10.5971 N.pl3   1  UNL1       -0.2830
     21 C          66.4493   95.9300   10.7708 C.3     1  UNL1        0.1247
     22 C          66.9573   96.8553    9.7050 C.3     1  UNL1        0.1636
     23 O          67.5906   96.2959    8.4657 O.3     1  UNL1       -0.3501
     24 C          67.7160   94.8113    8.2921 C.3     1  UNL1        0.1636
     25 C          67.2080   93.8860    9.3578 C.3     1  UNL1        0.1247
     26 C          65.8346   92.0822   15.2607 C.2     1  UNL1        0.0801
     27 O          64.5999   92.0147   16.1097 O.co2   1  UNL1       -0.5440
     28 O          67.1774   91.7980   15.8658 O.co2   1  UNL1       -0.5440
@<TRIPOS>UNITY_ATOM_ATTR
27 1
charge -1
@<TRIPOS>BOND
     1     2     3    1
     2     3     4    1
     3     4     5    1
     4     5     6   ar
     5     6     7   ar
     6     7     8    1
     7     7     9   ar
     8     9    10   ar
     9    10    11   ar
    10    11    12    1
    11    12    13   am
    12    13    14    2
    13    13     1    1
    14     1    15    1
    15    15    16   ar
    16    16    17   ar
    17    17    20    1
    18    20    21    1
    19    21    22    1
    20    22    23    1
    21    23    24    1
    22    24    25    1
    23    17    18   ar
    24    18    19   ar
    25    19    26    1
    26    26    27   ar
    27    26    28   ar
    28    12     3    1
    29    19    15   ar
    30    11     5   ar
    31    25    20    1
@<TRIPOS>MOLECULE
*****
 28 31 0 0 0
SMALL
GASTEIGER

@<TRIPOS>ATOM
      1 C          64.2624   88.5684   14.5289 C.3     1  UNL1        0.1318
      2 C          63.1763   90.9164   10.5360 C.3     1  UNL1        0.0222
      3 C          64.1011   91.3474   11.6355 C.3     1  UNL1        0.0842
      4 C          64.8758   92.6309   11.6836 C.3     1  UNL1        0.0478
      5 C          65.6671   92.6473   12.9578 C.ar    1  UNL1       -0.0046
      6 C          66.6108   93.6573   13.5403 C.ar    1  UNL1        0.0267
      7 C          67.2688   93.3939   14.8622 C.ar    1  UNL1        0.1399
      8 F          68.2126   94.4039   15.4447 F       1  UNL1       -0.2042
      9 C          66.9831   92.1205   15.6017 C.ar    1  UNL1        0.0309
     10 C          66.0393   91.1106   15.0193 C.ar    1  UNL1        0.0169
     11 C          65.3813   91.3740   13.6973 C.ar    1  UNL1        0.0500
     12 N          64.4135   90.5706   12.8801 N.am    1  UNL1       -0.2599
     13 C          63.8560   89.2263   13.2437 C.2     1  UNL1        0.2353
     14 O          62.8919   88.5399   12.3219 O.2     1  UNL1       -0.2741
     15 C          63.8484   87.1546   14.8114 C.ar    1  UNL1        0.0772
     16 N          63.9174   86.0066   13.8485 N.ar    1  UNL1       -0.2279
     17 C          63.4045   84.7831   14.5484 C.ar    1  UNL1        0.1629
     18 S          63.0184   85.1749   15.9440 S.2     1  UNL1       -0.0507
     19 C          63.2928   86.6407   16.1065 C.ar    1  UNL1        0.0601
     20 N          63.2965   83.4089   13.9568 N.pl3   1  UNL1       -0.2830
     21 C          62.3184   82.4230   14.5236 C.3     1  UNL1        0.1247
     22 C          62.2104   81.0489   13.9320 C.3     1  UNL1        0.1636
     23 O          63.0806   80.6606   12.7735 O.3     1  UNL1       -0.3501
     24 C          64.0587   81.6466   12.2067 C.3     1  UNL1        0.1636
     25 C          64.1667   83.0207   12.7983 C.3     1  UNL1        0.1247
     26 C          63.0536   87.4503   17.3464 C.2     1  UNL1        0.0801
     27 O          63.1810   88.9442   17.3028 O.co2   1  UNL1       -0.5440
     28 O          62.6869   86.7659   18.6298 O.co2   1  UNL1       -0.5440
@<TRIPOS>UNITY_ATOM_ATTR
27 1
charge -1
@<TRIPOS>BOND
     1     2     3    1
     2     3     4    1
     3     4     5    1
     4     5     6   ar
     5     6     7   ar
     6     7     8    1
     7     7     9   ar
     8     9    10   ar
     9    10    11   ar
    10    11    12    1
    11    12    13   am
    12    13    14    2
    13    13     1    1
    14     1    15    1
    15    15    16   ar
    16    16    17   ar
    17    17    20    1
    18    20    21    1
    19    21    22    1
    20    22    23    1
    21    23    24    1
    22    24    25    1
    23    17    18   ar
    24    18    19   ar
    25    19    26    1
    26    26    27   ar
    27    26    28   ar
    28    12     3    1
    29    19    15   ar
    30    11     5   ar
    31    25    20    1
@<TRIPOS>MOLECULE
*****
 28 31 0 0 0
SMALL
GASTEIGER

@<TRIPOS>ATOM
      1 C          62.5890   90.0347   12.0439 C.3     1  UNL1        0.1318
      2 C          64.3486   91.2429   16.2959 C.3     1  UNL1        0.0222
      3 C          64.7873   91.7276   14.9459 C.3     1  UNL1        0.0842
      4 C          65.8901   92.7081   14.6766 C.3     1  UNL1        0.0478
      5 C          65.9846   92.9034   13.1924 C.ar    1  UNL1       -0.0046
      6 C          66.8867   93.7531   12.3473 C.ar    1  UNL1        0.0267
      7 C          66.7445   93.7430   10.8541 C.ar    1  UNL1        0.1399
      8 F          67.6466   94.5927   10.0090 F       1  UNL1       -0.2042
      9 C          65.7002   92.8831   10.2060 C.ar    1  UNL1        0.0309
     10 C          64.7981   92.0334   11.0511 C.ar    1  UNL1        0.0169
     11 C          64.9403   92.0436   12.5443 C.ar    1  UNL1        0.0500
     12 N          64.2003   91.3169   13.6280 N.am    1  UNL1       -0.2599
     13 C          63.0715   90.3494   13.4288 C.2     1  UNL1        0.2353
     14 O          62.4252   89.6964   14.6146 O.2     1  UNL1       -0.2741
     15 C          62.3222   88.6128   11.6475 C.ar    1  UNL1        0.0772
     16 N          63.0085   87.3995   12.2016 N.ar    1  UNL1       -0.2279
     17 C          62.4328   86.1914   11.5241 C.ar    1  UNL1        0.1629
     18 S          61.3908   86.6580   10.5512 S.2     1  UNL1       -0.0507
     19 C          61.3224   88.1546   10.6275 C.ar    1  UNL1        0.0601
     20 N          62.8295   84.7668   11.7752 N.pl3   1  UNL1       -0.2830
     21 C          62.6986   84.1832   13.1508 C.3     1  UNL1        0.1247
     22 C          63.0953   82.7585   13.4019 C.3     1  UNL1        0.1636
     23 O          63.6229   81.9176   12.2775 O.3     1  UNL1       -0.3501
     24 C          63.7538   82.5012   10.9019 C.3     1  UNL1        0.1636
     25 C          63.3571   83.9259   10.6507 C.3     1  UNL1        0.1247
     26 C          60.4138   89.0378    9.8248 C.2     1  UNL1        0.0801
     27 O          59.7784   90.2376   10.4625 O.co2   1  UNL1       -0.5440
     28 O          60.1406   88.7211    8.3842 O.co2   1  UNL1       -0.5440
@<TRIPOS>UNITY_ATOM_ATTR
27 1
charge -1
@<TRIPOS>BOND
     1     2     3    1
     2     3     4    1
     3     4     5    1
     4     5     6   ar
     5     6     7   ar
     6     7     8    1
     7     7     9   ar
     8     9    10   ar
     9    10    11   ar
    10    11    12    1
    11    12    13   am
    12    13    14    2
    13    13     1    1
    14     1    15    1
    15    15    16   ar
    16    16    17   ar
    17    17    20    1
    18    20    21    1
    19    21    22    1
    20    22    23    1
    21    23    24    1
    22    24    25    1
    23    17    18   ar
    24    18    19   ar
    25    19    26    1
    26    26    27   ar
    27    26    28   ar
    28    12     3    1
    29    19    15   ar
    30    11     5   ar
    31    25    20    1
@<TRIPOS>MOLECULE
*****
 28 31 0 0 0
SMALL
GASTEIGER

@<TRIPOS>ATOM
      1 C          61.4455   87.4132   11.3079 C.3     1  UNL1        0.1318
      2 C          63.0335   84.7270    7.7165 C.3     1  UNL1        0.0222
      3 C          63.1647   84.4685    9.1882 C.3     1  UNL1        0.0842
      4 C          63.8377   83.2856    9.8191 C.3     1  UNL1        0.0478
      5 C          63.7349   83.4335   11.3082 C.ar    1  UNL1       -0.0046
      6 C          64.2167   82.5724   12.4380 C.ar    1  UNL1        0.0267
      7 C          63.9621   82.9857   13.8573 C.ar    1  UNL1        0.1399
      8 F          64.4439   82.1246   14.9871 F       1  UNL1       -0.2042
      9 C          63.2256   84.2600   14.1468 C.ar    1  UNL1        0.0309
     10 C          62.7437   85.1210   13.0170 C.ar    1  UNL1        0.0169
     11 C          62.9984   84.7078   11.5978 C.ar    1  UNL1        0.0500
     12 N          62.6460   85.3474   10.2875 N.am    1  UNL1       -0.2599
     13 C          61.9051   86.6392   10.1081 C.2     1  UNL1        0.2353
     14 O          61.6236   87.1571    8.7287 O.2     1  UNL1       -0.2741
     15 C          62.0311   88.7632   11.5990 C.ar    1  UNL1        0.0772
     16 N          63.3465   89.0276   12.2697 N.ar    1  UNL1       -0.2279
     17 C          63.5324   90.5136   12.3558 C.ar    1  UNL1        0.1629
     18 S          62.3319   91.1675   11.7383 S.2     1  UNL1       -0.0507
     19 C          61.4040   90.0856   11.2706 C.ar    1  UNL1        0.0601
     20 N          64.7117   91.2214   12.9542 N.pl3   1  UNL1       -0.2830
     21 C          65.2937   90.7441   14.2517 C.3     1  UNL1        0.1247
     22 C          66.4731   91.4519   14.8501 C.3     1  UNL1        0.1636
     23 O          67.0703   92.6371   14.1511 O.3     1  UNL1       -0.3501
     24 C          66.4883   93.1144   12.8537 C.3     1  UNL1        0.1636
     25 C          65.3090   92.4066   12.2552 C.3     1  UNL1        0.1247
     26 C          60.0813   90.2903   10.5933 C.2     1  UNL1        0.0801
     27 O          58.9946   91.0575   11.2864 O.co2   1  UNL1       -0.5440
     28 O          59.8454   89.7278    9.2229 O.co2   1  UNL1       -0.5440
@<TRIPOS>UNITY_ATOM_ATTR
27 1
charge -1
@<TRIPOS>BOND
     1     2     3    1
     2     3     4    1
     3     4     5    1
     4     5     6   ar
     5     6     7   ar
     6     7     8    1
     7     7     9   ar
     8     9    10   ar
     9    10    11   ar
    10    11    12    1
    11    12    13   am
    12    13    14    2
    13    13     1    1
    14     1    15    1
    15    15    16   ar
    16    16    17   ar
    17    17    20    1
    18    20    21    1
    19    21    22    1
    20    22    23    1
    21    23    24    1
    22    24    25    1
    23    17    18   ar
    24    18    19   ar
    25    19    26    1
    26    26    27   ar
    27    26    28   ar
    28    12     3    1
    29    19    15   ar
    30    11     5   ar
    31    25    20    1
@<TRIPOS>MOLECULE
*****
 28 31 0 0 0
SMALL
GASTEIGER

@<TRIPOS>ATOM
      1 C          62.4197   87.7340   12.3283 C.3     1  UNL1        0.1318
      2 C          62.7651   85.6949    8.0437 C.3     1  UNL1        0.0222
      3 C          62.9375   85.0504    9.3872 C.3     1  UNL1        0.0842
      4 C          63.2589   83.6069    9.6379 C.3     1  UNL1        0.0478
      5 C          63.3388   83.4006   11.1215 C.ar    1  UNL1       -0.0046
      6 C          63.6241   82.1845   11.9518 C.ar    1  UNL1        0.0267
      7 C          63.6374   82.2844   13.4484 C.ar    1  UNL1        0.1399
      8 F          63.9227   81.0683   14.2788 F       1  UNL1       -0.2042
      9 C          63.3653   83.6005   14.1146 C.ar    1  UNL1        0.0309
     10 C          63.0799   84.8167   13.2843 C.ar    1  UNL1        0.0169
     11 C          63.0667   84.7167   11.7877 C.ar    1  UNL1        0.0500
     12 N          62.8187   85.7363   10.7158 N.am    1  UNL1       -0.2599
     13 C          62.5066   87.1872   10.9343 C.2     1  UNL1        0.2353
     14 O          62.2814   88.0912    9.7587 O.2     1  UNL1       -0.2741
     15 C          63.3133   88.8633   12.7480 C.ar    1  UNL1        0.0772
     16 N          63.6439   90.0766   11.9304 N.ar    1  UNL1       -0.2279
     17 C          64.5681   90.9408   12.7361 C.ar    1  UNL1        0.1629
     18 S          64.8087   90.2616   14.0517 S.2     1  UNL1       -0.0507
     19 C          64.0331   88.9776   14.0591 C.ar    1  UNL1        0.0601
     20 N          65.1496   92.2537   12.3024 N.pl3   1  UNL1       -0.2830
     21 C          65.8935   93.1064   13.2871 C.3     1  UNL1        0.1247
     22 C          66.4751   94.4193   12.8534 C.3     1  UNL1        0.1636
     23 O          66.3127   94.8795   11.4351 O.3     1  UNL1       -0.3501
     24 C          65.5688   94.0268   10.4504 C.3     1  UNL1        0.1636
     25 C          64.9873   92.7139   10.8841 C.3     1  UNL1        0.1247
     26 C          63.9858   87.9826   15.1806 C.2     1  UNL1        0.0801
     27 O          63.1245   88.2451   16.3803 O.co2   1  UNL1       -0.5440
     28 O          64.7997   86.7249   15.1023 O.co2   1  UNL1       -0.5440
@<TRIPOS>UNITY_ATOM_ATTR
27 1
charge -1
@<TRIPOS>BOND
     1     2     3    1
     2     3     4    1
     3     4     5    1
     4     5     6   ar
     5     6     7   ar
     6     7     8    1
     7     7     9   ar
     8     9    10   ar
     9    10    11   ar
    10    11    12    1
    11    12    13   am
    12    13    14    2
    13    13     1    1
    14     1    15    1
    15    15    16   ar
    16    16    17   ar
    17    17    20    1
    18    20    21    1
    19    21    22    1
    20    22    23    1
    21    23    24    1
    22    24    25    1
    23    17    18   ar
    24    18    19   ar
    25    19    26    1
    26    26    27   ar
    27    26    28   ar
    28    12     3    1
    29    19    15   ar
    30    11     5   ar
    31    25    20    1
@<TRIPOS>MOLECULE
*****
 28 31 0 0 0
SMALL
GASTEIGER

@<TRIPOS>ATOM
      1 C          63.4096   87.7539   12.0399 C.3     1  UNL1        0.1318
      2 C          59.4867   90.2890   11.1346 C.3     1  UNL1        0.0222
      3 C          60.0405   89.1369   10.3498 C.3     1  UNL1        0.0842
      4 C          59.4468   88.5538    9.1018 C.3     1  UNL1        0.0478
      5 C          60.3246   87.4221    8.6558 C.ar    1  UNL1       -0.0046
      6 C          60.2361   86.4826    7.4899 C.ar    1  UNL1        0.0267
      7 C          61.2838   85.4267    7.2964 C.ar    1  UNL1        0.1399
      8 F          61.1953   84.4871    6.1305 F       1  UNL1       -0.2042
      9 C          62.4200   85.3105    8.2688 C.ar    1  UNL1        0.0309
     10 C          62.5085   86.2501    9.4347 C.ar    1  UNL1        0.0169
     11 C          61.4608   87.3059    9.6282 C.ar    1  UNL1        0.0500
     12 N          61.2852   88.3657   10.6751 N.am    1  UNL1       -0.2599
     13 C          62.1947   88.6111   11.8424 C.2     1  UNL1        0.2353
     14 O          61.8892   89.7139   12.8123 O.2     1  UNL1       -0.2741
     15 C          63.3080   86.4775   12.8213 C.ar    1  UNL1        0.0772
     16 N          62.9645   85.1278   12.2643 N.ar    1  UNL1       -0.2279
     17 C          62.9763   84.1429   13.3956 C.ar    1  UNL1        0.1629
     18 S          63.3271   84.8839   14.6518 S.2     1  UNL1       -0.0507
     19 C          63.5321   86.3269   14.2968 C.ar    1  UNL1        0.0601
     20 N          62.6880   82.6747   13.2895 N.pl3   1  UNL1       -0.2830
     21 C          63.2564   81.8790   12.1520 C.3     1  UNL1        0.1247
     22 C          62.9680   80.4108   12.0459 C.3     1  UNL1        0.1636
     23 O          62.1113   79.7383   13.0772 O.3     1  UNL1       -0.3501
     24 C          61.5429   80.5340   14.2147 C.3     1  UNL1        0.1636
     25 C          61.8313   82.0022   14.3209 C.3     1  UNL1        0.1247
     26 C          63.8971   87.4261   15.2499 C.2     1  UNL1        0.0801
     27 O          63.3504   87.4199   16.6467 O.co2   1  UNL1       -0.5440
     28 O          64.8090   88.5315   14.8063 O.co2   1  UNL1       -0.5440
@<TRIPOS>UNITY_ATOM_ATTR
27 1
charge -1
@<TRIPOS>BOND
     1     2     3    1
     2     3     4    1
     3     4     5    1
     4     5     6   ar
     5     6     7   ar
     6     7     8    1
     7     7     9   ar
     8     9    10   ar
     9    10    11   ar
    10    11    12    1
    11    12    13   am
    12    13    14    2
    13    13     1    1
    14     1    15    1
    15    15    16   ar
    16    16    17   ar
    17    17    20    1
    18    20    21    1
    19    21    22    1
    20    22    23    1
    21    23    24    1
    22    24    25    1
    23    17    18   ar
    24    18    19   ar
    25    19    26    1
    26    26    27   ar
    27    26    28   ar
    28    12     3    1
    29    19    15   ar
    30    11     5   ar
    31    25    20    1
