@<TRIPOS>MOLECULE
*****
 26 29 0 0 0
SMALL
GASTEIGER

@<TRIPOS>ATOM
      1 C          63.5528   89.6023   12.8816 C.ar    1  UNL1       -0.0046
      2 C          62.7988   89.6790   11.5871 C.ar    1  UNL1       -0.0028
      3 C          62.2816   88.4260   10.9451 C.ar    1  UNL1        0.0013
      4 C          62.5182   87.0962   11.5975 C.ar    1  UNL1        0.0189
      5 C          63.2722   87.0194   12.8919 C.ar    1  UNL1        0.0823
      6 C          63.7895   88.2725   13.5340 C.ar    1  UNL1        0.0164
      7 C          64.4934   87.8874   14.8014 C.ar    1  UNL1        0.0217
      8 C          64.4111   86.3964   14.9427 C.ar    1  UNL1        0.0999
      9 N          63.6564   85.8599   13.7626 N.ar    1  UNL1       -0.2077
     10 S          63.3411   84.4173   13.4993 S.O2    1  UNL1        0.0860
     11 O          62.0681   84.5528   14.2810 O.2     1  UNL1       -0.1476
     12 O          64.6141   84.2818   12.7175 O.2     1  UNL1       -0.1476
     13 C          63.0259   82.9745   13.2359 C.ar    1  UNL1        0.1277
     14 C          63.3940   82.3545   11.9206 C.ar    1  UNL1        0.0204
     15 C          63.0788   80.9118   11.6572 C.ar    1  UNL1        0.0014
     16 C          62.3956   80.0892   12.7092 C.ar    1  UNL1        0.0001
     17 C          62.0275   80.7092   14.0245 C.ar    1  UNL1        0.0014
     18 C          62.3427   82.1520   14.2878 C.ar    1  UNL1        0.0204
     19 C          64.0702   90.8553   13.5237 C.3     1  UNL1        0.0993
     20 C          67.0012   94.9244   10.2294 C.3     1  UNL1        0.0897
     21 N          66.2684   93.9071   11.0530 N.3     1  UNL1       -0.2691
     22 C          65.2779   92.9878   10.4021 C.3     1  UNL1        0.0897
     23 C          64.5451   91.9706   11.2257 C.3     1  UNL1        0.0899
     24 N          64.8029   91.8726   12.7001 N.3     1  UNL1       -0.2665
     25 C          65.7935   92.7919   13.3510 C.3     1  UNL1        0.0899
     26 C          66.5263   93.8092   12.5274 C.3     1  UNL1        0.0897
@<TRIPOS>BOND
     1    20    21    1
     2    21    22    1
     3    22    23    1
     4    23    24    1
     5    24    19    1
     6    19     1    1
     7     1     2   ar
     8     2     3   ar
     9     3     4   ar
    10     4     5   ar
    11     5     6   ar
    12     6     7   ar
    13     7     8   ar
    14     8     9   ar
    15     9    10    1
    16    10    11    2
    17    10    12    2
    18    10    13    1
    19    13    14   ar
    20    14    15   ar
    21    15    16   ar
    22    16    17   ar
    23    17    18   ar
    24    24    25    1
    25    25    26    1
    26    26    21    1
    27     6     1   ar
    28    18    13   ar
    29     9     5   ar
@<TRIPOS>MOLECULE
*****
 26 29 0 0 0
SMALL
GASTEIGER

@<TRIPOS>ATOM
      1 C          63.3795   90.1860   12.5444 C.ar    1  UNL1       -0.0046
      2 C          62.7394   90.2006   11.1879 C.ar    1  UNL1       -0.0028
      3 C          62.3557   88.9105   10.5259 C.ar    1  UNL1        0.0013
      4 C          62.6120   87.6058   11.2203 C.ar    1  UNL1        0.0189
      5 C          63.2521   87.5913   12.5768 C.ar    1  UNL1        0.0823
      6 C          63.6358   88.8814   13.2388 C.ar    1  UNL1        0.0164
      7 C          64.2466   88.5558   14.5696 C.ar    1  UNL1        0.0217
      8 C          64.2404   87.0644   14.7300 C.ar    1  UNL1        0.0999
      9 N          63.6257   86.4683   13.4983 N.ar    1  UNL1       -0.2077
     10 S          63.4207   85.0060   13.2345 S.O2    1  UNL1        0.0860
     11 O          64.8058   84.7215   13.7351 O.2     1  UNL1       -0.1476
     12 O          62.0356   85.2905   12.7340 O.2     1  UNL1       -0.1476
     13 C          63.2156   83.5437   12.9707 C.ar    1  UNL1        0.1277
     14 C          63.3523   83.0067   11.5768 C.ar    1  UNL1        0.0204
     15 C          63.1472   81.5444   11.3130 C.ar    1  UNL1        0.0014
     16 C          62.8054   80.6191   12.4430 C.ar    1  UNL1        0.0001
     17 C          62.6687   81.1560   13.8369 C.ar    1  UNL1        0.0014
     18 C          62.8738   82.6184   14.1007 C.ar    1  UNL1        0.0204
     19 C          63.7632   91.4762   13.2065 C.3     1  UNL1        0.0993
     20 C          69.5096   92.5693   14.5424 C.3     1  UNL1        0.0897
     21 N          68.0730   92.2960   14.2084 N.3     1  UNL1       -0.2691
     22 C          67.0876   92.0192   15.3049 C.3     1  UNL1        0.0897
     23 C          65.6510   91.7459   14.9709 C.3     1  UNL1        0.0899
     24 N          65.1998   91.7495   13.5405 N.3     1  UNL1       -0.2665
     25 C          66.1852   92.0263   12.4439 C.3     1  UNL1        0.0899
     26 C          67.6218   92.2996   12.7778 C.3     1  UNL1        0.0897
@<TRIPOS>BOND
     1    20    21    1
     2    21    22    1
     3    22    23    1
     4    23    24    1
     5    24    19    1
     6    19     1    1
     7     1     2   ar
     8     2     3   ar
     9     3     4   ar
    10     4     5   ar
    11     5     6   ar
    12     6     7   ar
    13     7     8   ar
    14     8     9   ar
    15     9    10    1
    16    10    11    2
    17    10    12    2
    18    10    13    1
    19    13    14   ar
    20    14    15   ar
    21    15    16   ar
    22    16    17   ar
    23    17    18   ar
    24    24    25    1
    25    25    26    1
    26    26    21    1
    27     6     1   ar
    28    18    13   ar
    29     9     5   ar
@<TRIPOS>MOLECULE
*****
 26 29 0 0 0
SMALL
GASTEIGER

@<TRIPOS>ATOM
      1 C          63.6435   89.5359   13.3360 C.ar    1  UNL1       -0.0046
      2 C          64.4241   89.2450   14.5834 C.ar    1  UNL1       -0.0028
      3 C          64.6833   87.8252   14.9918 C.ar    1  UNL1        0.0013
      4 C          64.1620   86.6963   14.1529 C.ar    1  UNL1        0.0189
      5 C          63.3814   86.9872   12.9055 C.ar    1  UNL1        0.0823
      6 C          63.1222   88.4070   12.4971 C.ar    1  UNL1        0.0164
      7 C          62.3272   88.3857   11.2252 C.ar    1  UNL1        0.0217
      8 C          62.0951   86.9527   10.8476 C.ar    1  UNL1        0.0999
      9 N          62.7466   86.0884   11.8861 N.ar    1  UNL1       -0.2077
     10 S          62.7609   84.5886   11.9024 S.O2    1  UNL1        0.0860
     11 O          63.2441   84.5778   10.4824 O.2     1  UNL1       -0.1476
     12 O          62.2778   84.5994   13.3224 O.2     1  UNL1       -0.1476
     13 C          62.7752   83.0887   11.9187 C.ar    1  UNL1        0.1277
     14 C          62.3629   82.3482   13.1563 C.ar    1  UNL1        0.0204
     15 C          62.3772   80.8484   13.1727 C.ar    1  UNL1        0.0014
     16 C          62.8037   80.0890   11.9514 C.ar    1  UNL1        0.0001
     17 C          63.2160   80.8295   10.7138 C.ar    1  UNL1        0.0014
     18 C          63.2017   82.3294   10.6975 C.ar    1  UNL1        0.0204
     19 C          63.3842   90.9558   12.9275 C.3     1  UNL1        0.0993
     20 C          67.6684   94.1088   10.1518 C.3     1  UNL1        0.0897
     21 N          66.5974   93.3205   10.8457 N.3     1  UNL1       -0.2691
     22 C          66.6788   93.0847   12.3248 C.3     1  UNL1        0.0897
     23 C          65.6078   92.2965   13.0187 C.3     1  UNL1        0.0899
     24 N          64.4553   91.7441   12.2336 N.3     1  UNL1       -0.2665
     25 C          64.3738   91.9799   10.7544 C.3     1  UNL1        0.0899
     26 C          65.4448   92.7681   10.0605 C.3     1  UNL1        0.0897
@<TRIPOS>BOND
     1    20    21    1
     2    21    22    1
     3    22    23    1
     4    23    24    1
     5    24    19    1
     6    19     1    1
     7     1     2   ar
     8     2     3   ar
     9     3     4   ar
    10     4     5   ar
    11     5     6   ar
    12     6     7   ar
    13     7     8   ar
    14     8     9   ar
    15     9    10    1
    16    10    11    2
    17    10    12    2
    18    10    13    1
    19    13    14   ar
    20    14    15   ar
    21    15    16   ar
    22    16    17   ar
    23    17    18   ar
    24    24    25    1
    25    25    26    1
    26    26    21    1
    27     6     1   ar
    28    18    13   ar
    29     9     5   ar
@<TRIPOS>MOLECULE
*****
 26 29 0 0 0
SMALL
GASTEIGER

@<TRIPOS>ATOM
      1 C          63.8435   89.8636   14.2121 C.ar    1  UNL1       -0.0046
      2 C          62.7076   89.6736   13.2511 C.ar    1  UNL1       -0.0028
      3 C          62.6623   90.4648   11.9776 C.ar    1  UNL1        0.0013
      4 C          63.7530   91.4459   11.6649 C.ar    1  UNL1        0.0189
      5 C          64.8889   91.6359   12.6259 C.ar    1  UNL1        0.0823
      6 C          64.9342   90.8448   13.8994 C.ar    1  UNL1        0.0164
      7 C          66.1709   91.2433   14.6490 C.ar    1  UNL1        0.0217
      8 C          66.8899   92.2808   13.8387 C.ar    1  UNL1        0.0999
      9 N          66.0976   92.5234   12.5883 N.ar    1  UNL1       -0.2077
     10 S          66.4518   93.4848   11.4927 S.O2    1  UNL1        0.0860
     11 O          66.9216   92.3422   10.6420 O.2     1  UNL1       -0.1476
     12 O          65.9820   94.6274   12.3435 O.2     1  UNL1       -0.1476
     13 C          66.8059   94.4463   10.3971 C.ar    1  UNL1        0.1277
     14 C          67.5299   93.9593    9.1770 C.ar    1  UNL1        0.0204
     15 C          67.8841   94.9206    8.0815 C.ar    1  UNL1        0.0014
     16 C          67.5143   96.3690    8.2060 C.ar    1  UNL1        0.0001
     17 C          66.7903   96.8560    9.4261 C.ar    1  UNL1        0.0014
     18 C          66.4362   95.8945   10.5217 C.ar    1  UNL1        0.0204
     19 C          63.8888   89.0725   15.4857 C.3     1  UNL1        0.0993
     20 C          63.4058   83.0942   15.3224 C.3     1  UNL1        0.0897
     21 N          63.5265   84.5887   15.3633 N.3     1  UNL1       -0.2691
     22 C          63.0262   85.3493   16.5554 C.3     1  UNL1        0.0897
     23 C          63.1470   86.8439   16.5962 C.3     1  UNL1        0.0899
     24 N          63.7681   87.5779   15.4449 N.3     1  UNL1       -0.2665
     25 C          64.2684   86.8173   14.2527 C.3     1  UNL1        0.0899
     26 C          64.1476   85.3227   14.2119 C.3     1  UNL1        0.0897
@<TRIPOS>BOND
     1    20    21    1
     2    21    22    1
     3    22    23    1
     4    23    24    1
     5    24    19    1
     6    19     1    1
     7     1     2   ar
     8     2     3   ar
     9     3     4   ar
    10     4     5   ar
    11     5     6   ar
    12     6     7   ar
    13     7     8   ar
    14     8     9   ar
    15     9    10    1
    16    10    11    2
    17    10    12    2
    18    10    13    1
    19    13    14   ar
    20    14    15   ar
    21    15    16   ar
    22    16    17   ar
    23    17    18   ar
    24    24    25    1
    25    25    26    1
    26    26    21    1
    27     6     1   ar
    28    18    13   ar
    29     9     5   ar
@<TRIPOS>MOLECULE
*****
 26 29 0 0 0
SMALL
GASTEIGER

@<TRIPOS>ATOM
      1 C          61.7634   89.4451   10.4685 C.ar    1  UNL1       -0.0046
      2 C          60.8695   89.0416    9.3336 C.ar    1  UNL1       -0.0028
      3 C          60.5675   87.5917    9.0957 C.ar    1  UNL1        0.0013
      4 C          61.1593   86.5454    9.9929 C.ar    1  UNL1        0.0189
      5 C          62.0532   86.9488   11.1278 C.ar    1  UNL1        0.0823
      6 C          62.3553   88.3987   11.3656 C.ar    1  UNL1        0.0164
      7 C          63.2644   88.4938   12.5550 C.ar    1  UNL1        0.0217
      8 C          63.5243   87.1027   13.0521 C.ar    1  UNL1        0.0999
      9 N          62.7757   86.1478   12.1701 N.ar    1  UNL1       -0.2077
     10 S          62.7535   84.6542   12.3064 S.O2    1  UNL1        0.0860
     11 O          63.2318   84.5179   10.8913 O.2     1  UNL1       -0.1476
     12 O          62.2751   84.7905   13.7216 O.2     1  UNL1       -0.1476
     13 C          62.7312   83.1605   12.4428 C.ar    1  UNL1        0.1277
     14 C          62.3769   82.5328   13.7583 C.ar    1  UNL1        0.0204
     15 C          62.3547   81.0392   13.8947 C.ar    1  UNL1        0.0014
     16 C          62.6867   80.1733   12.7157 C.ar    1  UNL1        0.0001
     17 C          63.0410   80.8010   11.4003 C.ar    1  UNL1        0.0014
     18 C          63.0632   82.2947   11.2639 C.ar    1  UNL1        0.0204
     19 C          62.0655   90.8950   10.7064 C.3     1  UNL1        0.0993
     20 C          67.2830   92.5033   13.1947 C.3     1  UNL1        0.0897
     21 N          65.9786   92.1012   12.5726 N.3     1  UNL1       -0.2691
     22 C          65.7813   92.2346   11.0916 C.3     1  UNL1        0.0897
     23 C          64.4769   91.8326   10.4696 C.3     1  UNL1        0.0899
     24 N          63.3699   91.2971   11.3284 N.3     1  UNL1       -0.2665
     25 C          63.5672   91.1637   12.8095 C.3     1  UNL1        0.0899
     26 C          64.8715   91.5658   13.4315 C.3     1  UNL1        0.0897
@<TRIPOS>BOND
     1    20    21    1
     2    21    22    1
     3    22    23    1
     4    23    24    1
     5    24    19    1
     6    19     1    1
     7     1     2   ar
     8     2     3   ar
     9     3     4   ar
    10     4     5   ar
    11     5     6   ar
    12     6     7   ar
    13     7     8   ar
    14     8     9   ar
    15     9    10    1
    16    10    11    2
    17    10    12    2
    18    10    13    1
    19    13    14   ar
    20    14    15   ar
    21    15    16   ar
    22    16    17   ar
    23    17    18   ar
    24    24    25    1
    25    25    26    1
    26    26    21    1
    27     6     1   ar
    28    18    13   ar
    29     9     5   ar
@<TRIPOS>MOLECULE
*****
 26 29 0 0 0
SMALL
GASTEIGER

@<TRIPOS>ATOM
      1 C          64.0506   90.7716   15.7881 C.ar    1  UNL1       -0.0046
      2 C          64.9041   91.5990   16.7029 C.ar    1  UNL1       -0.0028
      3 C          65.8282   92.6344   16.1339 C.ar    1  UNL1        0.0013
      4 C          65.8989   92.8425   14.6501 C.ar    1  UNL1        0.0189
      5 C          65.0454   92.0151   13.7353 C.ar    1  UNL1        0.0823
      6 C          64.1213   90.9796   14.3043 C.ar    1  UNL1        0.0164
      7 C          63.4058   90.3195   13.1630 C.ar    1  UNL1        0.0217
      8 C          63.8877   90.9470   11.8887 C.ar    1  UNL1        0.0999
      9 N          64.9011   91.9949   12.2424 N.ar    1  UNL1       -0.2077
     10 S          65.6403   92.8692   11.2733 S.O2    1  UNL1        0.0860
     11 O          64.3892   93.0266   10.4609 O.2     1  UNL1       -0.1476
     12 O          66.8914   92.7118   12.0857 O.2     1  UNL1       -0.1476
     13 C          66.3797   93.7435   10.3042 C.ar    1  UNL1        0.1277
     14 C          65.9905   95.1834   10.1455 C.ar    1  UNL1        0.0204
     15 C          66.7297   96.0577    9.1765 C.ar    1  UNL1        0.0014
     16 C          67.8582   95.4921    8.3661 C.ar    1  UNL1        0.0001
     17 C          68.2474   94.0522    8.5248 C.ar    1  UNL1        0.0014
     18 C          67.5081   93.1779    9.4939 C.ar    1  UNL1        0.0204
     19 C          63.1264   89.7361   16.3571 C.3     1  UNL1        0.0993
     20 C          64.1795   83.9113   15.3759 C.3     1  UNL1        0.0897
     21 N          63.9162   85.3675   15.6212 N.3     1  UNL1       -0.2691
     22 C          64.4641   86.3979   14.6788 C.3     1  UNL1        0.0897
     23 C          64.2009   87.8541   14.9241 C.3     1  UNL1        0.0899
     24 N          63.3897   88.2799   16.1118 N.3     1  UNL1       -0.2665
     25 C          62.8417   87.2495   17.0542 C.3     1  UNL1        0.0899
     26 C          63.1050   85.7933   16.8089 C.3     1  UNL1        0.0897
@<TRIPOS>BOND
     1    20    21    1
     2    21    22    1
     3    22    23    1
     4    23    24    1
     5    24    19    1
     6    19     1    1
     7     1     2   ar
     8     2     3   ar
     9     3     4   ar
    10     4     5   ar
    11     5     6   ar
    12     6     7   ar
    13     7     8   ar
    14     8     9   ar
    15     9    10    1
    16    10    11    2
    17    10    12    2
    18    10    13    1
    19    13    14   ar
    20    14    15   ar
    21    15    16   ar
    22    16    17   ar
    23    17    18   ar
    24    24    25    1
    25    25    26    1
    26    26    21    1
    27     6     1   ar
    28    18    13   ar
    29     9     5   ar
@<TRIPOS>MOLECULE
*****
 26 29 0 0 0
SMALL
GASTEIGER

@<TRIPOS>ATOM
      1 C          61.8991   87.2232   11.5074 C.ar    1  UNL1       -0.0046
      2 C          62.4347   86.0881   12.3287 C.ar    1  UNL1       -0.0028
      3 C          63.5245   86.3353   13.3293 C.ar    1  UNL1        0.0013
      4 C          64.0786   87.7176   13.5086 C.ar    1  UNL1        0.0189
      5 C          63.5430   88.8527   12.6873 C.ar    1  UNL1        0.0823
      6 C          62.4532   88.6055   11.6867 C.ar    1  UNL1        0.0164
      7 C          62.1266   89.9115   11.0249 C.ar    1  UNL1        0.0217
      8 C          63.0145   90.9658   11.6166 C.ar    1  UNL1        0.0999
      9 N          63.8899   90.3114   12.6440 N.ar    1  UNL1       -0.2077
     10 S          64.9297   90.9956   13.4811 S.O2    1  UNL1        0.0860
     11 O          64.3042   90.4290   14.7211 O.2     1  UNL1       -0.1476
     12 O          65.5552   91.5623   12.2410 O.2     1  UNL1       -0.1476
     13 C          65.9695   91.6799   14.3181 C.ar    1  UNL1        0.1277
     14 C          67.3528   91.8853   13.7757 C.ar    1  UNL1        0.0204
     15 C          68.3927   92.5695   14.6127 C.ar    1  UNL1        0.0014
     16 C          68.0492   93.0483   15.9921 C.ar    1  UNL1        0.0001
     17 C          66.6659   92.8429   16.5346 C.ar    1  UNL1        0.0014
     18 C          65.6261   92.1586   15.6975 C.ar    1  UNL1        0.0204
     19 C          60.8092   86.9761   10.5068 C.3     1  UNL1        0.0993
     20 C          62.0546   84.1876    5.3421 C.3     1  UNL1        0.0897
     21 N          61.7432   84.8847    6.6333 N.3     1  UNL1       -0.2691
     22 C          62.8053   85.0293    7.6826 C.3     1  UNL1        0.0897
     23 C          62.4939   85.7265    8.9738 C.3     1  UNL1        0.0899
     24 N          61.1206   86.2790    9.2156 N.3     1  UNL1       -0.2665
     25 C          60.0584   86.1344    8.1663 C.3     1  UNL1        0.0899
     26 C          60.3698   85.4372    6.8751 C.3     1  UNL1        0.0897
@<TRIPOS>BOND
     1    20    21    1
     2    21    22    1
     3    22    23    1
     4    23    24    1
     5    24    19    1
     6    19     1    1
     7     1     2   ar
     8     2     3   ar
     9     3     4   ar
    10     4     5   ar
    11     5     6   ar
    12     6     7   ar
    13     7     8   ar
    14     8     9   ar
    15     9    10    1
    16    10    11    2
    17    10    12    2
    18    10    13    1
    19    13    14   ar
    20    14    15   ar
    21    15    16   ar
    22    16    17   ar
    23    17    18   ar
    24    24    25    1
    25    25    26    1
    26    26    21    1
    27     6     1   ar
    28    18    13   ar
    29     9     5   ar
@<TRIPOS>MOLECULE
*****
 26 29 0 0 0
SMALL
GASTEIGER

@<TRIPOS>ATOM
      1 C          63.8943   88.9822   13.9315 C.ar    1  UNL1       -0.0046
      2 C          62.9341   88.6871   12.8176 C.ar    1  UNL1       -0.0028
      3 C          62.8999   89.5677   11.6039 C.ar    1  UNL1        0.0013
      4 C          63.8259   90.7435   11.5040 C.ar    1  UNL1        0.0189
      5 C          64.7862   91.0386   12.6179 C.ar    1  UNL1        0.0823
      6 C          64.8204   90.1580   13.8316 C.ar    1  UNL1        0.0164
      7 C          65.8667   90.6935   14.7636 C.ar    1  UNL1        0.0217
      8 C          66.4792   91.9051   14.1258 C.ar    1  UNL1        0.0999
      9 N          65.8113   92.1184   12.7997 N.ar    1  UNL1       -0.2077
     10 S          66.1153   93.2184   11.8262 S.O2    1  UNL1        0.0860
     11 O          67.2723   93.6516   12.6770 O.2     1  UNL1       -0.1476
     12 O          64.9584   92.7852   10.9754 O.2     1  UNL1       -0.1476
     13 C          66.4193   94.3184   10.8527 C.ar    1  UNL1        0.1277
     14 C          66.1661   95.7473   11.2326 C.ar    1  UNL1        0.0204
     15 C          66.4701   96.8473   10.2592 C.ar    1  UNL1        0.0014
     16 C          67.0271   96.5185    8.9058 C.ar    1  UNL1        0.0001
     17 C          67.2802   95.0896    8.5258 C.ar    1  UNL1        0.0014
     18 C          66.9762   93.9896    9.4994 C.ar    1  UNL1        0.0204
     19 C          63.9286   88.1015   15.1453 C.3     1  UNL1        0.0993
     20 C          62.8259   82.2270   14.6215 C.3     1  UNL1        0.0897
     21 N          63.1016   83.6956   14.7524 N.3     1  UNL1       -0.2691
     22 C          62.7129   84.4229   16.0054 C.3     1  UNL1        0.0897
     23 C          62.9886   85.8915   16.1364 C.3     1  UNL1        0.0899
     24 N          63.6529   86.6329   15.0144 N.3     1  UNL1       -0.2665
     25 C          64.0416   85.9056   13.7613 C.3     1  UNL1        0.0899
     26 C          63.7659   84.4370   13.6303 C.3     1  UNL1        0.0897
@<TRIPOS>BOND
     1    20    21    1
     2    21    22    1
     3    22    23    1
     4    23    24    1
     5    24    19    1
     6    19     1    1
     7     1     2   ar
     8     2     3   ar
     9     3     4   ar
    10     4     5   ar
    11     5     6   ar
    12     6     7   ar
    13     7     8   ar
    14     8     9   ar
    15     9    10    1
    16    10    11    2
    17    10    12    2
    18    10    13    1
    19    13    14   ar
    20    14    15   ar
    21    15    16   ar
    22    16    17   ar
    23    17    18   ar
    24    24    25    1
    25    25    26    1
    26    26    21    1
    27     6     1   ar
    28    18    13   ar
    29     9     5   ar
@<TRIPOS>MOLECULE
*****
 26 29 0 0 0
SMALL
GASTEIGER

@<TRIPOS>ATOM
      1 C          62.0805   89.0184   11.0385 C.ar    1  UNL1       -0.0046
      2 C          62.0588   90.0994    9.9989 C.ar    1  UNL1       -0.0028
      3 C          62.9425   91.3021   10.1489 C.ar    1  UNL1        0.0013
      4 C          63.8481   91.4237   11.3385 C.ar    1  UNL1        0.0189
      5 C          63.8698   90.3427   12.3781 C.ar    1  UNL1        0.0823
      6 C          62.9860   89.1400   12.2281 C.ar    1  UNL1        0.0164
      7 C          63.2220   88.2415   13.4059 C.ar    1  UNL1        0.0217
      8 C          64.2517   88.8889   14.2837 C.ar    1  UNL1        0.0999
      9 N          64.6521   90.1875   13.6486 N.ar    1  UNL1       -0.2077
     10 S          65.6580   91.1601   14.1889 S.O2    1  UNL1        0.0860
     11 O          64.9986   91.0945   15.5346 O.2     1  UNL1       -0.1476
     12 O          66.3175   91.2256   12.8433 O.2     1  UNL1       -0.1476
     13 C          66.6641   92.1328   14.7293 C.ar    1  UNL1        0.1277
     14 C          67.7391   91.6592   15.6620 C.ar    1  UNL1        0.0204
     15 C          68.7452   92.6318   16.2023 C.ar    1  UNL1        0.0014
     16 C          68.6761   94.0779   15.8099 C.ar    1  UNL1        0.0001
     17 C          67.6010   94.5515   14.8772 C.ar    1  UNL1        0.0014
     18 C          66.5950   93.5788   14.3369 C.ar    1  UNL1        0.0204
     19 C          61.1967   87.8157   10.8885 C.3     1  UNL1        0.0993
     20 C          61.6093   84.3824    5.9853 C.3     1  UNL1        0.0897
     21 N          61.5062   85.2407    7.2111 N.3     1  UNL1       -0.2691
     22 C          60.2287   85.9665    7.5131 C.3     1  UNL1        0.0897
     23 C          60.1256   86.8249    8.7389 C.3     1  UNL1        0.0899
     24 N          61.2998   86.9574    9.6627 N.3     1  UNL1       -0.2665
     25 C          62.5774   86.2315    9.3607 C.3     1  UNL1        0.0899
     26 C          62.6805   85.3732    8.1349 C.3     1  UNL1        0.0897
@<TRIPOS>BOND
     1    20    21    1
     2    21    22    1
     3    22    23    1
     4    23    24    1
     5    24    19    1
     6    19     1    1
     7     1     2   ar
     8     2     3   ar
     9     3     4   ar
    10     4     5   ar
    11     5     6   ar
    12     6     7   ar
    13     7     8   ar
    14     8     9   ar
    15     9    10    1
    16    10    11    2
    17    10    12    2
    18    10    13    1
    19    13    14   ar
    20    14    15   ar
    21    15    16   ar
    22    16    17   ar
    23    17    18   ar
    24    24    25    1
    25    25    26    1
    26    26    21    1
    27     6     1   ar
    28    18    13   ar
    29     9     5   ar
