@<TRIPOS>MOLECULE
*****
 18 19 0 0 0
SMALL
GASTEIGER

@<TRIPOS>ATOM
      1 C          63.5273   83.8121   13.4910 C.ar    1  UNL1        0.0609
      2 C          63.8101   82.7536   14.5155 C.ar    1  UNL1        0.1071
      3 N          63.5360   81.3129   14.2008 N.ar    1  UNL1       -0.2417
      4 C          62.9793   80.9305   12.8615 C.ar    1  UNL1        0.0989
      5 C          62.6966   81.9890   11.8369 C.ar    1  UNL1        0.0213
      6 C          62.9706   83.4297   12.1517 C.ar    1  UNL1        0.0122
      7 C          62.6878   84.4882   11.1271 C.ar    1  UNL1        0.0199
      8 C          63.3345   84.4155    9.7756 C.ar    1  UNL1        0.0032
      9 C          63.0518   85.4739    8.7510 C.ar    1  UNL1        0.0207
     10 C          62.1224   86.6051    9.0778 C.ar    1  UNL1        0.0989
     11 N          61.4757   86.6777   10.4293 N.ar    1  UNL1       -0.2423
     12 C          61.7584   85.6193   11.4540 C.ar    1  UNL1        0.0989
     13 C          64.0754   86.6936   14.1205 C.1     1  UNL1       -0.0689
     14 C          63.8014   85.2529   13.8058 C.1     1  UNL1       -0.0614
     15 N          63.5459   88.8380   15.4885 N.3     1  UNL1       -0.3102
     16 C          64.3494   88.1344   14.4353 C.3     1  UNL1        0.1432
     17 H          63.8641   89.8036   15.5704 H       1  UNL1        0.1198
     18 H          63.6676   88.3629   16.3829 H       1  UNL1        0.1198
@<TRIPOS>BOND
     1    15    16    1
     2    16    13    1
     3    13    14    3
     4    14     1    1
     5     1     2   ar
     6     2     3   ar
     7     3     4   ar
     8     4     5   ar
     9     5     6   ar
    10     6     7    1
    11     7     8   ar
    12     8     9   ar
    13     9    10   ar
    14    10    11   ar
    15    11    12   ar
    16     6     1   ar
    17    12     7   ar
    18    15    17    1
    19    15    18    1
@<TRIPOS>MOLECULE
*****
 18 19 0 0 0
SMALL
GASTEIGER

@<TRIPOS>ATOM
      1 C          64.1504   90.6898   12.9415 C.ar    1  UNL1        0.0609
      2 C          64.6143   91.9209   12.2211 C.ar    1  UNL1        0.1071
      3 N          65.5641   92.8690   12.8913 N.ar    1  UNL1       -0.2417
      4 C          66.0500   92.5858   14.2819 C.ar    1  UNL1        0.0989
      5 C          65.5861   91.3547   15.0023 C.ar    1  UNL1        0.0213
      6 C          64.6363   90.4067   14.3321 C.ar    1  UNL1        0.0122
      7 C          64.1723   89.1755   15.0526 C.ar    1  UNL1        0.0199
      8 C          64.5893   87.8195   14.5654 C.ar    1  UNL1        0.0032
      9 C          64.1255   86.5883   15.2858 C.ar    1  UNL1        0.0207
     10 C          63.2445   86.7132   16.4934 C.ar    1  UNL1        0.0989
     11 N          62.8275   88.0691   16.9807 N.ar    1  UNL1       -0.2423
     12 C          63.2914   89.3003   16.2602 C.ar    1  UNL1        0.0989
     13 C          62.2507   88.7938   11.6012 C.1     1  UNL1       -0.0689
     14 C          63.2006   89.7418   12.2714 C.1     1  UNL1       -0.0614
     15 N          59.8631   87.7993   11.3559 N.3     1  UNL1       -0.3102
     16 C          61.3009   87.8458   10.9310 C.3     1  UNL1        0.1432
     17 H          59.3663   87.1042   10.7988 H       1  UNL1        0.1198
     18 H          59.4372   88.7154   11.2152 H       1  UNL1        0.1198
@<TRIPOS>BOND
     1    15    16    1
     2    16    13    1
     3    13    14    3
     4    14     1    1
     5     1     2   ar
     6     2     3   ar
     7     3     4   ar
     8     4     5   ar
     9     5     6   ar
    10     6     7    1
    11     7     8   ar
    12     8     9   ar
    13     9    10   ar
    14    10    11   ar
    15    11    12   ar
    16     6     1   ar
    17    12     7   ar
    18    15    17    1
    19    15    18    1
@<TRIPOS>MOLECULE
*****
 18 19 0 0 0
SMALL
GASTEIGER

@<TRIPOS>ATOM
      1 C          64.6961   91.6014   12.5114 C.ar    1  UNL1        0.0609
      2 C          63.4547   90.9420   11.9879 C.ar    1  UNL1        0.1071
      3 N          62.7686   89.8832   12.7994 N.ar    1  UNL1       -0.2417
      4 C          63.3240   89.4839   14.1343 C.ar    1  UNL1        0.0989
      5 C          64.5654   90.1433   14.6578 C.ar    1  UNL1        0.0213
      6 C          65.2514   91.2020   13.8464 C.ar    1  UNL1        0.0122
      7 C          66.4929   91.8614   14.3699 C.ar    1  UNL1        0.0199
      8 C          66.4513   92.6178   15.6646 C.ar    1  UNL1        0.0032
      9 C          67.6927   93.2772   16.1882 C.ar    1  UNL1        0.0207
     10 C          68.9757   93.1802   15.4171 C.ar    1  UNL1        0.0989
     11 N          69.0173   92.4238   14.1224 N.ar    1  UNL1       -0.2423
     12 C          67.7758   91.7644   13.5989 C.ar    1  UNL1        0.0989
     13 C          66.0682   93.7188   10.8886 C.1     1  UNL1       -0.0689
     14 C          65.3822   92.6601   11.7000 C.1     1  UNL1       -0.0614
     15 N          68.1331   94.5343    9.5391 N.3     1  UNL1       -0.3102
     16 C          66.7543   94.7775   10.0772 C.3     1  UNL1        0.1432
     17 H          68.4432   95.3530    9.0156 H       1  UNL1        0.1198
     18 H          68.1191   93.7218    8.9226 H       1  UNL1        0.1198
@<TRIPOS>BOND
     1    15    16    1
     2    16    13    1
     3    13    14    3
     4    14     1    1
     5     1     2   ar
     6     2     3   ar
     7     3     4   ar
     8     4     5   ar
     9     5     6   ar
    10     6     7    1
    11     7     8   ar
    12     8     9   ar
    13     9    10   ar
    14    10    11   ar
    15    11    12   ar
    16     6     1   ar
    17    12     7   ar
    18    15    17    1
    19    15    18    1
@<TRIPOS>MOLECULE
*****
 18 19 0 0 0
SMALL
GASTEIGER

@<TRIPOS>ATOM
      1 C          61.1302   88.1135    9.6633 C.ar    1  UNL1        0.0609
      2 C          60.2792   89.0864    8.9022 C.ar    1  UNL1        0.1071
      3 N          59.4292   88.6079    7.7627 N.ar    1  UNL1       -0.2417
      4 C          59.4301   87.1564    7.3843 C.ar    1  UNL1        0.0989
      5 C          60.2811   86.1835    8.1454 C.ar    1  UNL1        0.0213
      6 C          61.1311   86.6621    9.2849 C.ar    1  UNL1        0.0122
      7 C          61.9821   85.6891   10.0460 C.ar    1  UNL1        0.0199
      8 C          63.0083   84.8663    9.3249 C.ar    1  UNL1        0.0032
      9 C          63.8593   83.8934   10.0859 C.ar    1  UNL1        0.0207
     10 C          63.6840   83.7431   11.5681 C.ar    1  UNL1        0.0989
     11 N          62.6578   84.5659   12.2892 N.ar    1  UNL1       -0.2423
     12 C          61.8069   85.5389   11.5281 C.ar    1  UNL1        0.0989
     13 C          62.8302   89.0706   11.9423 C.1     1  UNL1       -0.0689
     14 C          61.9802   88.5921   10.8028 C.1     1  UNL1       -0.0614
     15 N          63.1199   90.5184   14.0801 N.3     1  UNL1       -0.3102
     16 C          63.6802   89.5492   13.0818 C.3     1  UNL1        0.1432
     17 H          63.8295   90.7336   14.7804 H       1  UNL1        0.1198
     18 H          62.3066   90.1047   14.5361 H       1  UNL1        0.1198
@<TRIPOS>BOND
     1    15    16    1
     2    16    13    1
     3    13    14    3
     4    14     1    1
     5     1     2   ar
     6     2     3   ar
     7     3     4   ar
     8     4     5   ar
     9     5     6   ar
    10     6     7    1
    11     7     8   ar
    12     8     9   ar
    13     9    10   ar
    14    10    11   ar
    15    11    12   ar
    16     6     1   ar
    17    12     7   ar
    18    15    17    1
    19    15    18    1
@<TRIPOS>MOLECULE
*****
 18 19 0 0 0
SMALL
GASTEIGER

@<TRIPOS>ATOM
      1 C          64.9984   91.6126   12.7106 C.ar    1  UNL1        0.0609
      2 C          63.9629   90.7318   13.3446 C.ar    1  UNL1        0.1071
      3 N          62.7721   90.2831   12.5506 N.ar    1  UNL1       -0.2417
      4 C          62.6167   90.7151   11.1226 C.ar    1  UNL1        0.0989
      5 C          63.6521   91.5959   10.4887 C.ar    1  UNL1        0.0213
      6 C          64.8430   92.0447   11.2827 C.ar    1  UNL1        0.0122
      7 C          65.8785   92.9255   10.6486 C.ar    1  UNL1        0.0199
      8 C          67.0973   92.3176   10.0203 C.ar    1  UNL1        0.0032
      9 C          68.1328   93.1984    9.3863 C.ar    1  UNL1        0.0207
     10 C          67.9494   94.6872    9.3806 C.ar    1  UNL1        0.0989
     11 N          66.7306   95.2951   10.0090 N.ar    1  UNL1       -0.2423
     12 C          65.6951   94.4142   10.6430 C.ar    1  UNL1        0.0989
     13 C          67.3801   92.5101   14.2987 C.1     1  UNL1       -0.0689
     14 C          66.1893   92.0614   13.5047 C.1     1  UNL1       -0.0614
     15 N          68.4415   94.0979   16.0601 N.3     1  UNL1       -0.3102
     16 C          68.5710   92.9589   15.0927 C.3     1  UNL1        0.1432
     17 H          69.3417   94.2666   16.5091 H       1  UNL1        0.1198
     18 H          67.7464   93.8644   16.7691 H       1  UNL1        0.1198
@<TRIPOS>BOND
     1    15    16    1
     2    16    13    1
     3    13    14    3
     4    14     1    1
     5     1     2   ar
     6     2     3   ar
     7     3     4   ar
     8     4     5   ar
     9     5     6   ar
    10     6     7    1
    11     7     8   ar
    12     8     9   ar
    13     9    10   ar
    14    10    11   ar
    15    11    12   ar
    16     6     1   ar
    17    12     7   ar
    18    15    17    1
    19    15    18    1
@<TRIPOS>MOLECULE
*****
 18 19 0 0 0
SMALL
GASTEIGER

@<TRIPOS>ATOM
      1 C          64.6803   91.4918   12.6082 C.ar    1  UNL1        0.0609
      2 C          65.4131   92.4888   11.7605 C.ar    1  UNL1        0.1071
      3 N          66.7212   93.0541   12.2290 N.ar    1  UNL1       -0.2417
      4 C          67.2964   92.6222   13.5452 C.ar    1  UNL1        0.0989
      5 C          66.5635   91.6252   14.3930 C.ar    1  UNL1        0.0213
      6 C          65.2555   91.0599   13.9245 C.ar    1  UNL1        0.0122
      7 C          64.5226   90.0628   14.7723 C.ar    1  UNL1        0.0199
      8 C          63.7621   90.5214   15.9811 C.ar    1  UNL1        0.0032
      9 C          63.0293   89.5243   16.8289 C.ar    1  UNL1        0.0207
     10 C          63.0570   88.0686   16.4680 C.ar    1  UNL1        0.0989
     11 N          63.8176   87.6100   15.2591 N.ar    1  UNL1       -0.2423
     12 C          64.5504   88.6072   14.4113 C.ar    1  UNL1        0.0989
     13 C          62.0641   90.3613   11.6712 C.1     1  UNL1       -0.0689
     14 C          63.3722   90.9265   12.1397 C.1     1  UNL1       -0.0614
     15 N          60.2444   90.1260    9.8319 N.3     1  UNL1       -0.3102
     16 C          60.7561   89.7960   11.2027 C.3     1  UNL1        0.1432
     17 H          59.3495   89.6602    9.6817 H       1  UNL1        0.1198
     18 H          60.9152   89.8072    9.1327 H       1  UNL1        0.1198
@<TRIPOS>BOND
     1    15    16    1
     2    16    13    1
     3    13    14    3
     4    14     1    1
     5     1     2   ar
     6     2     3   ar
     7     3     4   ar
     8     4     5   ar
     9     5     6   ar
    10     6     7    1
    11     7     8   ar
    12     8     9   ar
    13     9    10   ar
    14    10    11   ar
    15    11    12   ar
    16     6     1   ar
    17    12     7   ar
    18    15    17    1
    19    15    18    1
@<TRIPOS>MOLECULE
*****
 18 19 0 0 0
SMALL
GASTEIGER

@<TRIPOS>ATOM
      1 C          64.3704   91.2244   13.0681 C.ar    1  UNL1        0.0609
      2 C          65.5073   92.1953   13.1902 C.ar    1  UNL1        0.1071
      3 N          65.9551   92.9801   11.9929 N.ar    1  UNL1       -0.2417
      4 C          65.2661   92.7941   10.6736 C.ar    1  UNL1        0.0989
      5 C          64.1293   91.8232   10.5515 C.ar    1  UNL1        0.0213
      6 C          63.6815   91.0384   11.7488 C.ar    1  UNL1        0.0122
      7 C          62.5445   90.0674   11.6267 C.ar    1  UNL1        0.0199
      8 C          61.1377   90.5721   11.5002 C.ar    1  UNL1        0.0032
      9 C          60.0008   89.6012   11.3781 C.ar    1  UNL1        0.0207
     10 C          60.2708   88.1257   11.3825 C.ar    1  UNL1        0.0989
     11 N          61.6777   87.6211   11.5090 N.ar    1  UNL1       -0.2423
     12 C          62.8146   88.5920   11.6311 C.ar    1  UNL1        0.0989
     13 C          63.4747   89.6547   15.4627 C.1     1  UNL1       -0.0689
     14 C          63.9226   90.4396   14.2654 C.1     1  UNL1       -0.0614
     15 N          63.1014   87.3719   16.6455 N.3     1  UNL1       -0.3102
     16 C          63.0269   88.8699   16.6599 C.3     1  UNL1        0.1432
     17 H          62.7592   87.0058   17.5339 H       1  UNL1        0.1198
     18 H          64.0694   87.0809   16.5081 H       1  UNL1        0.1198
@<TRIPOS>BOND
     1    15    16    1
     2    16    13    1
     3    13    14    3
     4    14     1    1
     5     1     2   ar
     6     2     3   ar
     7     3     4   ar
     8     4     5   ar
     9     5     6   ar
    10     6     7    1
    11     7     8   ar
    12     8     9   ar
    13     9    10   ar
    14    10    11   ar
    15    11    12   ar
    16     6     1   ar
    17    12     7   ar
    18    15    17    1
    19    15    18    1
@<TRIPOS>MOLECULE
*****
 18 19 0 0 0
SMALL
GASTEIGER

@<TRIPOS>ATOM
      1 C          65.1390   91.9165   13.4672 C.ar    1  UNL1        0.0609
      2 C          64.7435   91.5668   14.8712 C.ar    1  UNL1        0.1071
      3 N          65.5801   92.0350   16.0248 N.ar    1  UNL1       -0.2417
      4 C          66.8123   92.8529   15.7744 C.ar    1  UNL1        0.0989
      5 C          67.2078   93.2026   14.3704 C.ar    1  UNL1        0.0213
      6 C          66.3712   92.7344   13.2168 C.ar    1  UNL1        0.0122
      7 C          66.7668   93.0841   11.8128 C.ar    1  UNL1        0.0199
      8 C          67.6557   92.1618   11.0322 C.ar    1  UNL1        0.0032
      9 C          68.0513   92.5115    9.6283 C.ar    1  UNL1        0.0207
     10 C          67.5579   93.7834    9.0047 C.ar    1  UNL1        0.0989
     11 N          66.6690   94.7057    9.7852 N.ar    1  UNL1       -0.2423
     12 C          66.2734   94.3560   11.1893 C.ar    1  UNL1        0.0989
     13 C          63.4657   90.9800   11.1600 C.1     1  UNL1       -0.0689
     14 C          64.3024   91.4482   12.3136 C.1     1  UNL1       -0.0614
     15 N          61.1353   90.4643   10.1338 N.3     1  UNL1       -0.3102
     16 C          62.6291   90.5118   10.0064 C.3     1  UNL1        0.1432
     17 H          60.7303   90.1245    9.2616 H       1  UNL1        0.1198
     18 H          60.7810   91.4002   10.3313 H       1  UNL1        0.1198
@<TRIPOS>BOND
     1    15    16    1
     2    16    13    1
     3    13    14    3
     4    14     1    1
     5     1     2   ar
     6     2     3   ar
     7     3     4   ar
     8     4     5   ar
     9     5     6   ar
    10     6     7    1
    11     7     8   ar
    12     8     9   ar
    13     9    10   ar
    14    10    11   ar
    15    11    12   ar
    16     6     1   ar
    17    12     7   ar
    18    15    17    1
    19    15    18    1
@<TRIPOS>MOLECULE
*****
 18 19 0 0 0
SMALL
GASTEIGER

@<TRIPOS>ATOM
      1 C          60.8111   87.0323    9.4853 C.ar    1  UNL1        0.0609
      2 C          60.0015   86.2816    8.4700 C.ar    1  UNL1        0.1071
      3 N          59.2260   87.0302    7.4269 N.ar    1  UNL1       -0.2417
      4 C          59.2601   88.5296    7.3991 C.ar    1  UNL1        0.0989
      5 C          60.0697   89.2803    8.4144 C.ar    1  UNL1        0.0213
      6 C          60.8452   88.5316    9.4575 C.ar    1  UNL1        0.0122
      7 C          61.6549   89.2824   10.4729 C.ar    1  UNL1        0.0199
      8 C          62.7521   90.2023   10.0257 C.ar    1  UNL1        0.0032
      9 C          63.5617   90.9531   11.0410 C.ar    1  UNL1        0.0207
     10 C          63.2742   90.7839   12.5035 C.ar    1  UNL1        0.0989
     11 N          62.1771   89.8640   12.9506 N.ar    1  UNL1       -0.2423
     12 C          61.3674   89.1132   11.9353 C.ar    1  UNL1        0.0989
     13 C          62.3622   85.5350   11.5716 C.1     1  UNL1       -0.0689
     14 C          61.5866   86.2837   10.5285 C.1     1  UNL1       -0.0614
     15 N          62.7266   84.8648   14.0551 N.3     1  UNL1       -0.3102
     16 C          63.1377   84.7864   12.6147 C.3     1  UNL1        0.1432
     17 H          63.3597   84.2993   14.6206 H       1  UNL1        0.1198
     18 H          61.7744   84.5134   14.1565 H       1  UNL1        0.1198
@<TRIPOS>BOND
     1    15    16    1
     2    16    13    1
     3    13    14    3
     4    14     1    1
     5     1     2   ar
     6     2     3   ar
     7     3     4   ar
     8     4     5   ar
     9     5     6   ar
    10     6     7    1
    11     7     8   ar
    12     8     9   ar
    13     9    10   ar
    14    10    11   ar
    15    11    12   ar
    16     6     1   ar
    17    12     7   ar
    18    15    17    1
    19    15    18    1
