@<TRIPOS>MOLECULE
*****
 22 25 0 0 0
SMALL
GASTEIGER

@<TRIPOS>ATOM
      1 O          63.3168   82.5939   14.9402 O.2     1  UNL1       -0.2448
      2 C          63.3457   83.8127   14.0665 C.2     1  UNL1        0.3428
      3 C          63.6444   83.6794   12.6026 C.2     1  UNL1        0.0958
      4 C          64.5806   82.6860   11.9807 C.2     1  UNL1        0.1049
      5 N          64.5741   82.9087   10.4974 N.2     1  UNL1       -0.2476
      6 C          63.6339   84.0397   10.2025 C.2     1  UNL1        0.0636
      7 C          63.2268   84.6974    8.9173 C.3     1  UNL1        0.0722
      8 C          62.2451   85.8313    8.9333 C.2     1  UNL1       -0.0131
      9 C          61.6705   86.3076   10.2345 C.2     1  UNL1        0.0307
     10 BR         60.6887   87.4417   10.2504 Br      1  UNL1       -0.0493
     11 C          62.0776   85.6500   11.5196 C.2     1  UNL1        0.0078
     12 C          63.0593   84.5160   11.5036 C.2     1  UNL1        0.0221
     13 O          63.0759   85.1651   14.6568 O.3     1  UNL1       -0.4454
     14 C          64.2171   86.0820   14.9837 C.3     1  UNL1        0.2087
     15 C          63.9672   87.5466   15.1895 C.3     1  UNL1        0.0445
     16 C          63.3828   88.0334   16.4824 C.3     1  UNL1        0.0210
     17 C          63.1329   89.4981   16.6880 C.3     1  UNL1        0.0722
     18 N          63.4673   90.4760   15.6009 N.3     1  UNL1       -0.2727
     19 C          64.0516   89.9892   14.3080 C.3     1  UNL1        0.0722
     20 C          64.3016   88.5245   14.1023 C.3     1  UNL1        0.0210
     21 C          63.6220   89.6830   15.4420 C.3     1  UNL1        0.0722
     22 C          63.8481   88.3587   15.2559 C.3     1  UNL1        0.0210
@<TRIPOS>BOND
     1     1     2    2
     2     2    13    1
     3    13    14    1
     4    14    15    1
     5    15    16    1
     6    16    17    1
     7    17    18    1
     8    18    19    1
     9    19    20    1
    10    18    21    1
    11    21    22    1
    12     2     3    1
    13     3     4    2
    14     4     5    1
    15     5     6    2
    16     6     7    1
    17     7     8    1
    18     8     9    2
    19     9    10    1
    20     9    11    1
    21    11    12    2
    22    20    15    1
    23    12     3    1
    24    22    15    1
    25    12     6    1
@<TRIPOS>MOLECULE
*****
 22 25 0 0 0
SMALL
GASTEIGER

@<TRIPOS>ATOM
      1 O          63.2154   88.2465   16.4106 O.2     1  UNL1       -0.2448
      2 C          64.0180   88.1966   15.1445 C.2     1  UNL1        0.3428
      3 C          64.1435   89.4210   14.2872 C.2     1  UNL1        0.0958
      4 C          64.8269   90.6999   14.6712 C.2     1  UNL1        0.1049
      5 N          64.7134   91.6508   13.5167 N.2     1  UNL1       -0.2476
      6 C          63.9599   90.9597   12.4192 C.2     1  UNL1        0.0636
      7 C          63.5490   91.4072   11.0478 C.3     1  UNL1        0.0722
      8 C          62.7859   90.4765   10.1525 C.2     1  UNL1       -0.0131
      9 C          62.4337   89.0984   10.6287 C.2     1  UNL1        0.0307
     10 BR         61.6705   88.1678    9.7334 Br      1  UNL1       -0.0493
     11 C          62.8446   88.6509   12.0001 C.2     1  UNL1        0.0078
     12 C          63.6077   89.5816   12.8954 C.2     1  UNL1        0.0221
     13 O          64.6951   86.9220   14.7355 O.3     1  UNL1       -0.4454
     14 C          63.9311   85.6312   14.7423 C.3     1  UNL1        0.2087
     15 C          63.7529   84.8585   13.4691 C.3     1  UNL1        0.0445
     16 C          64.6008   83.6509   13.1996 C.3     1  UNL1        0.0210
     17 C          64.4225   82.8783   11.9263 C.3     1  UNL1        0.0722
     18 N          63.3962   83.3132   10.9225 N.3     1  UNL1       -0.2727
     19 C          62.5482   84.5208   11.1920 C.3     1  UNL1        0.0722
     20 C          62.7266   85.2935   12.4654 C.3     1  UNL1        0.0210
     21 C          63.4576   83.7684   11.6059 C.3     1  UNL1        0.0722
     22 C          63.6187   84.4671   12.7572 C.3     1  UNL1        0.0210
@<TRIPOS>BOND
     1     1     2    2
     2     2    13    1
     3    13    14    1
     4    14    15    1
     5    15    16    1
     6    16    17    1
     7    17    18    1
     8    18    19    1
     9    19    20    1
    10    18    21    1
    11    21    22    1
    12     2     3    1
    13     3     4    2
    14     4     5    1
    15     5     6    2
    16     6     7    1
    17     7     8    1
    18     8     9    2
    19     9    10    1
    20     9    11    1
    21    11    12    2
    22    20    15    1
    23    12     3    1
    24    22    15    1
    25    12     6    1
@<TRIPOS>MOLECULE
*****
 22 25 0 0 0
SMALL
GASTEIGER

@<TRIPOS>ATOM
      1 O          63.3553   88.7354   16.1882 O.2     1  UNL1       -0.2448
      2 C          64.0734   88.4786   14.8966 C.2     1  UNL1        0.3428
      3 C          64.1271   89.5453   13.8433 C.2     1  UNL1        0.0958
      4 C          63.3384   89.5650   12.5675 C.2     1  UNL1        0.1049
      5 N          63.7028   90.8113   11.8166 N.2     1  UNL1       -0.2476
      6 C          64.7166   91.5619   12.6284 C.2     1  UNL1        0.0636
      7 C          65.4348   92.8568   12.3888 C.3     1  UNL1        0.0722
      8 C          66.4152   93.3691   13.4017 C.2     1  UNL1       -0.0131
      9 C          66.6774   92.5866   14.6543 C.2     1  UNL1        0.0307
     10 BR         67.6579   93.0991   15.6673 Br      1  UNL1       -0.0493
     11 C          65.9592   91.2918   14.8939 C.2     1  UNL1        0.0078
     12 C          64.9788   90.7794   13.8809 C.2     1  UNL1        0.0221
     13 O          64.7379   87.1551   14.6582 O.3     1  UNL1       -0.4454
     14 C          63.9395   85.8883   14.7465 C.3     1  UNL1        0.2087
     15 C          63.7444   85.0382   13.5261 C.3     1  UNL1        0.0445
     16 C          64.5301   83.7712   13.3612 C.3     1  UNL1        0.0210
     17 C          64.3349   82.9212   12.1408 C.3     1  UNL1        0.0722
     18 N          63.3540   83.3382   11.0853 N.3     1  UNL1       -0.2727
     19 C          62.5684   84.6053   11.2502 C.3     1  UNL1        0.0722
     20 C          62.7635   85.4553   12.4707 C.3     1  UNL1        0.0210
     21 C          63.4267   83.8366   11.7367 C.3     1  UNL1        0.0722
     22 C          63.6031   84.6053   12.8402 C.3     1  UNL1        0.0210
@<TRIPOS>BOND
     1     1     2    2
     2     2    13    1
     3    13    14    1
     4    14    15    1
     5    15    16    1
     6    16    17    1
     7    17    18    1
     8    18    19    1
     9    19    20    1
    10    18    21    1
    11    21    22    1
    12     2     3    1
    13     3     4    2
    14     4     5    1
    15     5     6    2
    16     6     7    1
    17     7     8    1
    18     8     9    2
    19     9    10    1
    20     9    11    1
    21    11    12    2
    22    20    15    1
    23    12     3    1
    24    22    15    1
    25    12     6    1
@<TRIPOS>MOLECULE
*****
 22 25 0 0 0
SMALL
GASTEIGER

@<TRIPOS>ATOM
      1 O          63.1174   84.8243    7.9472 O.2     1  UNL1       -0.2448
      2 C          62.5612   85.4319    9.2007 C.2     1  UNL1        0.3428
      3 C          61.5680   86.5528    9.1142 C.2     1  UNL1        0.0958
      4 C          60.3882   86.6160    8.1900 C.2     1  UNL1        0.1049
      5 N          59.6714   87.9094    8.4414 N.2     1  UNL1       -0.2476
      6 C          60.4082   88.6456    9.5208 C.2     1  UNL1        0.0636
      7 C          60.1632   89.9711   10.1788 C.3     1  UNL1        0.0722
      8 C          61.0904   90.4581   11.2527 C.2     1  UNL1       -0.0131
      9 C          62.2626   89.6196   11.6685 C.2     1  UNL1        0.0307
     10 BR         63.1898   90.1066   12.7424 Br      1  UNL1       -0.0493
     11 C          62.5076   88.2941   11.0105 C.2     1  UNL1        0.0078
     12 C          61.5804   87.8071    9.9367 C.2     1  UNL1        0.0221
     13 O          62.9980   84.9187   10.5408 O.3     1  UNL1       -0.4454
     14 C          63.4151   83.4862   10.6957 C.3     1  UNL1        0.2087
     15 C          63.0055   82.7134   11.9143 C.3     1  UNL1        0.0445
     16 C          62.8529   81.2230   11.8411 C.3     1  UNL1        0.0210
     17 C          62.4433   80.4503   13.0598 C.3     1  UNL1        0.0722
     18 N          62.1861   81.1680   14.3517 N.3     1  UNL1       -0.2727
     19 C          62.3387   82.6584   14.4248 C.3     1  UNL1        0.0722
     20 C          62.7484   83.4312   13.2061 C.3     1  UNL1        0.0210
     21 C          62.4086   81.6342   13.7104 C.3     1  UNL1        0.0722
     22 C          62.7790   82.3330   12.6086 C.3     1  UNL1        0.0210
@<TRIPOS>BOND
     1     1     2    2
     2     2    13    1
     3    13    14    1
     4    14    15    1
     5    15    16    1
     6    16    17    1
     7    17    18    1
     8    18    19    1
     9    19    20    1
    10    18    21    1
    11    21    22    1
    12     2     3    1
    13     3     4    2
    14     4     5    1
    15     5     6    2
    16     6     7    1
    17     7     8    1
    18     8     9    2
    19     9    10    1
    20     9    11    1
    21    11    12    2
    22    20    15    1
    23    12     3    1
    24    22    15    1
    25    12     6    1
@<TRIPOS>MOLECULE
*****
 22 25 0 0 0
SMALL
GASTEIGER

@<TRIPOS>ATOM
      1 O          65.6533   84.6459   14.6057 O.2     1  UNL1       -0.2448
      2 C          64.4133   85.4455   14.3360 C.2     1  UNL1        0.3428
      3 C          63.8849   86.3850   15.3792 C.2     1  UNL1        0.0958
      4 C          63.2190   85.9912   16.6643 C.2     1  UNL1        0.1049
      5 N          62.8522   87.2461   17.3997 N.2     1  UNL1       -0.2476
      6 C          63.2914   88.4154   16.5691 C.2     1  UNL1        0.0636
      7 C          63.1926   89.8959   16.7885 C.3     1  UNL1        0.0722
      8 C          63.7321   90.8443   15.7592 C.2     1  UNL1       -0.0131
      9 C          64.3703   90.3121   14.5104 C.2     1  UNL1        0.0307
     10 BR         64.9098   91.2605   13.4811 Br      1  UNL1       -0.0493
     11 C          64.4691   88.8315   14.2910 C.2     1  UNL1        0.0078
     12 C          63.9296   87.8832   15.3203 C.2     1  UNL1        0.0221
     13 O          63.7015   85.3057   13.0229 O.3     1  UNL1       -0.4454
     14 C          62.4377   84.5023   12.9367 C.3     1  UNL1        0.2087
     15 C          62.5046   83.0063   12.8501 C.3     1  UNL1        0.0445
     16 C          62.1391   82.1690   14.0397 C.3     1  UNL1        0.0210
     17 C          62.2060   80.6730   13.9529 C.3     1  UNL1        0.0722
     18 N          62.6384   80.0142   12.6765 N.3     1  UNL1       -0.2727
     19 C          63.0039   80.8516   11.4869 C.3     1  UNL1        0.0722
     20 C          62.9370   82.3476   11.5736 C.3     1  UNL1        0.0210
     21 C          62.6172   80.8374   12.6762 C.3     1  UNL1        0.0722
     22 C          62.5568   82.1901   12.7546 C.3     1  UNL1        0.0210
@<TRIPOS>BOND
     1     1     2    2
     2     2    13    1
     3    13    14    1
     4    14    15    1
     5    15    16    1
     6    16    17    1
     7    17    18    1
     8    18    19    1
     9    19    20    1
    10    18    21    1
    11    21    22    1
    12     2     3    1
    13     3     4    2
    14     4     5    1
    15     5     6    2
    16     6     7    1
    17     7     8    1
    18     8     9    2
    19     9    10    1
    20     9    11    1
    21    11    12    2
    22    20    15    1
    23    12     3    1
    24    22    15    1
    25    12     6    1
@<TRIPOS>MOLECULE
*****
 22 25 0 0 0
SMALL
GASTEIGER

@<TRIPOS>ATOM
      1 O          60.2335   90.3381   10.9987 O.2     1  UNL1       -0.2448
      2 C          61.5995   89.9527   10.5136 C.2     1  UNL1        0.3428
      3 C          62.8053   90.7066   10.9909 C.2     1  UNL1        0.0958
      4 C          63.6632   91.6145   10.1605 C.2     1  UNL1        0.1049
      5 N          64.7529   92.1539   11.0389 N.2     1  UNL1       -0.2476
      6 C          64.5685   91.5793   12.4122 C.2     1  UNL1        0.0636
      7 C          65.3411   91.7551   13.6858 C.3     1  UNL1        0.0722
      8 C          64.9100   91.0363   14.9298 C.2     1  UNL1       -0.0131
      9 C          63.7062   90.1419   14.9001 C.2     1  UNL1        0.0307
     10 BR         63.2751   89.4231   16.1442 Br      1  UNL1       -0.0493
     11 C          62.9336   89.9661   13.6265 C.2     1  UNL1        0.0078
     12 C          63.3647   90.6848   12.3825 C.2     1  UNL1        0.0221
     13 O          61.7598   88.8134    9.5511 O.3     1  UNL1       -0.4454
     14 C          61.0655   87.5093    9.8103 C.3     1  UNL1        0.2087
     15 C          61.8699   86.2703   10.0708 C.3     1  UNL1        0.0445
     16 C          61.9214   85.6860   11.4513 C.3     1  UNL1        0.0210
     17 C          62.7258   84.4470   11.7118 C.3     1  UNL1        0.0722
     18 N          63.4787   83.7923   10.5917 N.3     1  UNL1       -0.2727
     19 C          63.4272   84.3766    9.2112 C.3     1  UNL1        0.0722
     20 C          62.6228   85.6157    8.9507 C.3     1  UNL1        0.0210
     21 C          63.0516   84.4698   10.4005 C.3     1  UNL1        0.0722
     22 C          62.3243   85.5901   10.1649 C.3     1  UNL1        0.0210
@<TRIPOS>BOND
     1     1     2    2
     2     2    13    1
     3    13    14    1
     4    14    15    1
     5    15    16    1
     6    16    17    1
     7    17    18    1
     8    18    19    1
     9    19    20    1
    10    18    21    1
    11    21    22    1
    12     2     3    1
    13     3     4    2
    14     4     5    1
    15     5     6    2
    16     6     7    1
    17     7     8    1
    18     8     9    2
    19     9    10    1
    20     9    11    1
    21    11    12    2
    22    20    15    1
    23    12     3    1
    24    22    15    1
    25    12     6    1
@<TRIPOS>MOLECULE
*****
 22 25 0 0 0
SMALL
GASTEIGER

@<TRIPOS>ATOM
      1 O          65.4923   85.6726   14.8536 O.2     1  UNL1       -0.2448
      2 C          64.1148   86.1233   14.4674 C.2     1  UNL1        0.3428
      3 C          63.9070   87.4943   13.8953 C.2     1  UNL1        0.0958
      4 C          64.3201   88.7876   14.5331 C.2     1  UNL1        0.1049
      5 N          63.9181   89.9053   13.6170 N.2     1  UNL1       -0.2476
      6 C          63.2565   89.3027   12.4131 C.2     1  UNL1        0.0636
      7 C          62.6595   89.9183   11.1825 C.3     1  UNL1        0.0722
      8 C          62.0556   89.0439   10.1239 C.2     1  UNL1       -0.0131
      9 C          62.0488   87.5538   10.2960 C.2     1  UNL1        0.0307
     10 BR         61.4449   86.6793    9.2373 Br      1  UNL1       -0.0493
     11 C          62.6458   86.9382   11.5266 C.2     1  UNL1        0.0078
     12 C          63.2497   87.8126   12.5852 C.2     1  UNL1        0.0221
     13 O          62.9449   85.2030   14.6532 O.3     1  UNL1       -0.4454
     14 C          63.1371   83.7181   14.5631 C.3     1  UNL1        0.2087
     15 C          63.2974   83.0626   13.2235 C.3     1  UNL1        0.0445
     16 C          64.2137   83.6635   12.1992 C.3     1  UNL1        0.0210
     17 C          64.3739   83.0080   10.8596 C.3     1  UNL1        0.0722
     18 N          63.6178   81.7514   10.5442 N.3     1  UNL1       -0.2727
     19 C          62.7014   81.1505   11.5685 C.3     1  UNL1        0.0722
     20 C          62.5412   81.8060   12.9082 C.3     1  UNL1        0.0210
     21 C          63.4976   82.0746   11.2920 C.3     1  UNL1        0.0722
     22 C          63.3526   82.6673   12.5033 C.3     1  UNL1        0.0210
@<TRIPOS>BOND
     1     1     2    2
     2     2    13    1
     3    13    14    1
     4    14    15    1
     5    15    16    1
     6    16    17    1
     7    17    18    1
     8    18    19    1
     9    19    20    1
    10    18    21    1
    11    21    22    1
    12     2     3    1
    13     3     4    2
    14     4     5    1
    15     5     6    2
    16     6     7    1
    17     7     8    1
    18     8     9    2
    19     9    10    1
    20     9    11    1
    21    11    12    2
    22    20    15    1
    23    12     3    1
    24    22    15    1
    25    12     6    1
@<TRIPOS>MOLECULE
*****
 22 25 0 0 0
SMALL
GASTEIGER

@<TRIPOS>ATOM
      1 O          63.9583   88.5896   14.4555 O.2     1  UNL1       -0.2448
      2 C          63.5437   89.7920   13.6605 C.2     1  UNL1        0.3428
      3 C          62.9656   89.6202   12.2871 C.2     1  UNL1        0.0958
      4 C          62.5842   90.7247   11.3466 C.2     1  UNL1        0.1049
      5 N          62.0503   90.1009   10.0913 N.2     1  UNL1       -0.2476
      6 C          62.1018   88.6108   10.2559 C.2     1  UNL1        0.0636
      7 C          61.7066   87.4862    9.3455 C.3     1  UNL1        0.0722
      8 C          61.8772   86.0644    9.7922 C.2     1  UNL1       -0.0131
      9 C          62.4429   85.7674   11.1493 C.2     1  UNL1        0.0307
     10 BR         62.6134   84.3456   11.5959 Br      1  UNL1       -0.0493
     11 C          62.8380   86.8920   12.0597 C.2     1  UNL1        0.0078
     12 C          62.6675   88.3138   11.6131 C.2     1  UNL1        0.0221
     13 O          63.7071   91.1664   14.2390 O.3     1  UNL1       -0.4454
     14 C          64.6384   91.3881   15.3938 C.3     1  UNL1        0.2087
     15 C          66.0372   91.8702   15.1472 C.3     1  UNL1        0.0445
     16 C          66.7350   91.5237   13.8654 C.3     1  UNL1        0.0210
     17 C          68.1338   92.0058   13.6189 C.3     1  UNL1        0.0722
     18 N          68.8350   92.8344   14.6543 N.3     1  UNL1       -0.2727
     19 C          68.1373   93.1809   15.9361 C.3     1  UNL1        0.0722
     20 C          66.7383   92.6988   16.1826 C.3     1  UNL1        0.0210
     21 C          68.0686   92.5931   14.8343 C.3     1  UNL1        0.0722
     22 C          66.8037   92.1572   15.0572 C.3     1  UNL1        0.0210
@<TRIPOS>BOND
     1     1     2    2
     2     2    13    1
     3    13    14    1
     4    14    15    1
     5    15    16    1
     6    16    17    1
     7    17    18    1
     8    18    19    1
     9    19    20    1
    10    18    21    1
    11    21    22    1
    12     2     3    1
    13     3     4    2
    14     4     5    1
    15     5     6    2
    16     6     7    1
    17     7     8    1
    18     8     9    2
    19     9    10    1
    20     9    11    1
    21    11    12    2
    22    20    15    1
    23    12     3    1
    24    22    15    1
    25    12     6    1
@<TRIPOS>MOLECULE
*****
 22 25 0 0 0
SMALL
GASTEIGER

@<TRIPOS>ATOM
      1 O          64.6436   82.5616   10.0546 O.2     1  UNL1       -0.2448
      2 C          63.6360   83.4484   10.7239 C.2     1  UNL1        0.3428
      3 C          63.1702   83.1375   12.1155 C.2     1  UNL1        0.0958
      4 C          62.4949   81.8731   12.5574 C.2     1  UNL1        0.1049
      5 N          62.2054   81.9906   14.0244 N.2     1  UNL1       -0.2476
      6 C          62.7017   83.3276   14.4893 C.2     1  UNL1        0.0636
      7 C          62.6877   83.9912   15.8344 C.3     1  UNL1        0.0722
      8 C          63.2700   85.3636   15.9997 C.2     1  UNL1       -0.0131
      9 C          63.8663   86.0724   14.8199 C.2     1  UNL1        0.0307
     10 BR         64.4487   87.4449   14.9853 Br      1  UNL1       -0.0493
     11 C          63.8803   85.4089   13.4748 C.2     1  UNL1        0.0078
     12 C          63.2980   84.0365   13.3095 C.2     1  UNL1        0.0221
     13 O          63.0941   84.6463   10.0017 O.3     1  UNL1       -0.4454
     14 C          61.7532   85.2047   10.3763 C.3     1  UNL1        0.2087
     15 C          61.3339   86.5526    9.8691 C.3     1  UNL1        0.0445
     16 C          60.2319   86.6640    8.8576 C.3     1  UNL1        0.0210
     17 C          59.8127   88.0120    8.3505 C.3     1  UNL1        0.0722
     18 N          60.4956   89.2487    8.8548 N.3     1  UNL1       -0.2727
     19 C          61.5976   89.1374    9.8663 C.3     1  UNL1        0.0722
     20 C          62.0168   87.7893   10.3735 C.3     1  UNL1        0.0210
     21 C          60.7599   88.5319    9.1621 C.3     1  UNL1        0.0722
     22 C          61.1390   87.3131    9.6207 C.3     1  UNL1        0.0210
@<TRIPOS>BOND
     1     1     2    2
     2     2    13    1
     3    13    14    1
     4    14    15    1
     5    15    16    1
     6    16    17    1
     7    17    18    1
     8    18    19    1
     9    19    20    1
    10    18    21    1
    11    21    22    1
    12     2     3    1
    13     3     4    2
    14     4     5    1
    15     5     6    2
    16     6     7    1
    17     7     8    1
    18     8     9    2
    19     9    10    1
    20     9    11    1
    21    11    12    2
    22    20    15    1
    23    12     3    1
    24    22    15    1
    25    12     6    1
