@<TRIPOS>MOLECULE
*****
 29 31 0 0 0
SMALL
GASTEIGER

@<TRIPOS>ATOM
      1 C          64.0159   87.4501   14.3047 C.2     1  UNL1        0.2252
      2 O          63.4871   87.4983   12.9020 O.2     1  UNL1       -0.2750
      3 N          63.9931   88.6839   15.1577 N.am    1  UNL1       -0.3004
      4 H          64.3402   88.6523   16.0784 H       1  UNL1        0.1497
      5 C          64.5678   86.1682   14.8547 C.3     1  UNL1        0.1154
      6 C          63.4467   85.6707   16.4438 C.3     1  UNL1        0.0335
      7 C          63.6531   85.0081   15.1139 C.3     1  UNL1        0.1377
      8 C          64.0507   84.5881   13.7299 C.3     1  UNL1        0.0613
      9 C          63.3385   83.3068   13.4118 C.3     1  UNL1        0.1290
     10 C          62.5624   82.0352   13.2367 C.3     1  UNL1        0.0305
     11 C          62.6692   81.2617   11.9560 C.3     1  UNL1        0.0025
     12 C          63.5522   81.7597   10.8504 C.3     1  UNL1        0.0002
     13 C          64.3283   83.0312   11.0255 C.3     1  UNL1        0.0025
     14 C          64.2215   83.8048   12.3062 C.3     1  UNL1        0.0305
     15 O          62.5007   82.9350   14.5992 O.3     1  UNL1       -0.2256
     16 O          62.6951   83.9864   15.6512 O.3     1  UNL1       -0.2251
     17 C          63.4412   89.9657   14.6078 C.3     1  UNL1        0.1163
     18 C          64.2711   90.8024   13.6798 C.ar    1  UNL1       -0.0025
     19 C          63.7856   91.0862   12.2892 C.ar    1  UNL1       -0.0012
     20 C          64.6155   91.9230   11.3612 C.ar    1  UNL1        0.0196
     21 C          65.9308   92.4760   11.8239 C.ar    1  UNL1        0.1217
     22 C          66.4163   92.1922   13.2144 C.ar    1  UNL1        0.0196
     23 C          65.5864   91.3554   14.1425 C.ar    1  UNL1       -0.0012
     24 S          66.7606   93.3128   10.8958 S.O2    1  UNL1        0.0572
     25 N          67.5904   94.1496    9.9678 N.3     1  UNL1       -0.2035
     26 O          67.9433   92.4272   11.1547 O.2     1  UNL1       -0.1532
     27 O          65.5780   94.1983   10.6369 O.2     1  UNL1       -0.1532
     28 H          68.5367   93.7715    9.9234 H       1  UNL1        0.1442
     29 H          67.6234   95.1089   10.3127 H       1  UNL1        0.1442
@<TRIPOS>BOND
     1     6     7    1
     2     7     5    1
     3     5     1    1
     4     1     2    2
     5     1     3   am
     6     3    17    1
     7    17    18    1
     8    18    19   ar
     9    19    20   ar
    10    20    21   ar
    11    21    24    1
    12    24    25    1
    13    24    26    2
    14    24    27    2
    15    21    22   ar
    16    22    23   ar
    17     7     8    1
    18     8     9    1
    19     9    10    1
    20    10    11    1
    21    11    12    1
    22    12    13    1
    23    13    14    1
    24     9    15    1
    25    15    16    1
    26    16     7    1
    27    23    18   ar
    28    14     9    1
    29     3     4    1
    30    25    28    1
    31    25    29    1
@<TRIPOS>MOLECULE
*****
 29 31 0 0 0
SMALL
GASTEIGER

@<TRIPOS>ATOM
      1 C          63.2247   83.8391   15.0090 C.2     1  UNL1        0.2252
      2 O          64.7181   83.9678   15.0648 O.2     1  UNL1       -0.2750
      3 N          62.3621   84.7496   15.8317 N.am    1  UNL1       -0.3004
      4 H          61.3819   84.6651   15.7951 H       1  UNL1        0.1497
      5 C          62.5938   82.7998   14.1303 C.3     1  UNL1        0.1154
      6 C          63.6374   81.2102   13.4868 C.3     1  UNL1        0.0335
      7 C          63.2042   82.4715   12.8001 C.3     1  UNL1        0.1377
      8 C          62.6434   83.8013   12.3914 C.3     1  UNL1        0.0613
      9 C          62.9977   84.0314   10.9521 C.3     1  UNL1        0.1290
     10 C          63.4238   84.1217    9.5167 C.3     1  UNL1        0.0305
     11 C          63.0619   85.3277    8.7015 C.3     1  UNL1        0.0025
     12 C          62.2739   86.4432    9.3216 C.3     1  UNL1        0.0002
     13 C          61.8478   86.3529   10.7570 C.3     1  UNL1        0.0025
     14 C          62.2097   85.1469   11.5722 C.3     1  UNL1        0.0305
     15 O          63.7775   82.8436   10.4712 O.3     1  UNL1       -0.2256
     16 O          63.9051   81.8795   11.6133 O.3     1  UNL1       -0.2251
     17 C          62.9930   85.7888   16.7103 C.3     1  UNL1        0.1163
     18 C          63.4034   87.1108   16.1324 C.ar    1  UNL1       -0.0025
     19 C          64.1706   87.1605   14.8444 C.ar    1  UNL1       -0.0012
     20 C          64.5810   88.4824   14.2665 C.ar    1  UNL1        0.0196
     21 C          64.2243   89.7546   14.9765 C.ar    1  UNL1        0.1217
     22 C          63.4571   89.7049   16.2644 C.ar    1  UNL1        0.0196
     23 C          63.0466   88.3830   16.8425 C.ar    1  UNL1       -0.0012
     24 S          64.6347   91.0766   14.3985 S.O2    1  UNL1        0.0572
     25 N          65.0452   92.3985   13.8204 N.3     1  UNL1       -0.2035
     26 O          64.6969   91.6608   15.7786 O.2     1  UNL1       -0.1532
     27 O          64.5726   90.4924   13.0184 O.2     1  UNL1       -0.1532
     28 H          65.1781   93.0727   14.5743 H       1  UNL1        0.1442
     29 H          64.3180   92.7338   13.1887 H       1  UNL1        0.1442
@<TRIPOS>BOND
     1     6     7    1
     2     7     5    1
     3     5     1    1
     4     1     2    2
     5     1     3   am
     6     3    17    1
     7    17    18    1
     8    18    19   ar
     9    19    20   ar
    10    20    21   ar
    11    21    24    1
    12    24    25    1
    13    24    26    2
    14    24    27    2
    15    21    22   ar
    16    22    23   ar
    17     7     8    1
    18     8     9    1
    19     9    10    1
    20    10    11    1
    21    11    12    1
    22    12    13    1
    23    13    14    1
    24     9    15    1
    25    15    16    1
    26    16     7    1
    27    23    18   ar
    28    14     9    1
    29     3     4    1
    30    25    28    1
    31    25    29    1
@<TRIPOS>MOLECULE
*****
 29 31 0 0 0
SMALL
GASTEIGER

@<TRIPOS>ATOM
      1 C          60.7995   89.0047   11.0886 C.2     1  UNL1        0.2252
      2 O          59.7139   90.0283   11.2416 O.2     1  UNL1       -0.2750
      3 N          62.2383   89.4159   11.1935 N.am    1  UNL1       -0.3004
      4 H          62.9509   88.7440   11.0930 H       1  UNL1        0.1497
      5 C          60.4465   87.5698   10.8306 C.3     1  UNL1        0.1154
      6 C          60.4583   87.7043    8.8278 C.3     1  UNL1        0.0335
      7 C          61.1805   86.7947    9.7770 C.3     1  UNL1        0.1377
      8 C          61.7492   86.0470   10.9464 C.3     1  UNL1        0.0613
      9 C          62.6838   84.9999   10.4171 C.3     1  UNL1        0.1290
     10 C          63.5824   84.0051    9.7441 C.3     1  UNL1        0.0305
     11 C          64.3698   83.0290   10.5669 C.3     1  UNL1        0.0025
     12 C          64.2585   83.0475   12.0627 C.3     1  UNL1        0.0002
     13 C          63.3599   84.0422   12.7356 C.3     1  UNL1        0.0025
     14 C          62.5725   85.0184   11.9128 C.3     1  UNL1        0.0305
     15 O          62.6927   85.1004    8.9205 O.3     1  UNL1       -0.2256
     16 O          61.7636   86.2096    8.5248 O.3     1  UNL1       -0.2251
     17 C          62.5913   90.8507   11.4514 C.3     1  UNL1        0.1163
     18 C          63.8938   91.1958   12.1105 C.ar    1  UNL1       -0.0025
     19 C          64.8667   92.1044   11.4191 C.ar    1  UNL1       -0.0012
     20 C          66.1692   92.4495   12.0782 C.ar    1  UNL1        0.0196
     21 C          66.4988   91.8860   13.4287 C.ar    1  UNL1        0.1217
     22 C          65.5260   90.9775   14.1200 C.ar    1  UNL1        0.0196
     23 C          64.2234   90.6324   13.4610 C.ar    1  UNL1       -0.0012
     24 S          67.8014   92.2312   14.0877 S.O2    1  UNL1        0.0572
     25 N          69.1039   92.5763   14.7467 N.3     1  UNL1       -0.2035
     26 O          67.0614   92.6956   15.3071 O.2     1  UNL1       -0.1532
     27 O          68.5413   91.7667   12.8684 O.2     1  UNL1       -0.1532
     28 H          68.9248   92.9523   15.6778 H       1  UNL1        0.1442
     29 H          69.5939   93.2740   14.1868 H       1  UNL1        0.1442
@<TRIPOS>BOND
     1     6     7    1
     2     7     5    1
     3     5     1    1
     4     1     2    2
     5     1     3   am
     6     3    17    1
     7    17    18    1
     8    18    19   ar
     9    19    20   ar
    10    20    21   ar
    11    21    24    1
    12    24    25    1
    13    24    26    2
    14    24    27    2
    15    21    22   ar
    16    22    23   ar
    17     7     8    1
    18     8     9    1
    19     9    10    1
    20    10    11    1
    21    11    12    1
    22    12    13    1
    23    13    14    1
    24     9    15    1
    25    15    16    1
    26    16     7    1
    27    23    18   ar
    28    14     9    1
    29     3     4    1
    30    25    28    1
    31    25    29    1
@<TRIPOS>MOLECULE
*****
 29 31 0 0 0
SMALL
GASTEIGER

@<TRIPOS>ATOM
      1 C          60.8462   88.9449   10.5666 C.2     1  UNL1        0.2252
      2 O          59.7822   89.9674   10.8350 O.2     1  UNL1       -0.2750
      3 N          62.2669   89.3781   10.3563 N.am    1  UNL1       -0.3004
      4 H          62.9653   88.7070   10.1802 H       1  UNL1        0.1497
      5 C          60.4898   87.4889   10.5086 C.3     1  UNL1        0.1154
      6 C          60.4795   87.3280    8.5076 C.3     1  UNL1        0.0335
      7 C          61.2215   86.5745    9.5714 C.3     1  UNL1        0.1377
      8 C          61.8105   86.0121   10.8311 C.3     1  UNL1        0.0613
      9 C          62.7512   84.9075   10.4501 C.3     1  UNL1        0.1290
     10 C          63.6540   83.8334    9.9197 C.3     1  UNL1        0.0305
     11 C          64.4606   82.9962   10.8675 C.3     1  UNL1        0.0025
     12 C          64.3646   83.2331   12.3455 C.3     1  UNL1        0.0002
     13 C          63.4619   84.3072   12.8759 C.3     1  UNL1        0.0025
     14 C          62.6552   85.1444   11.9281 C.3     1  UNL1        0.0305
     15 O          62.7436   84.7873    8.9549 O.3     1  UNL1       -0.2256
     16 O          61.7981   85.8176    8.4118 O.3     1  UNL1       -0.2251
     17 C          62.6233   90.8340   10.4144 C.3     1  UNL1        0.1163
     18 C          63.7498   91.2959   11.2905 C.ar    1  UNL1       -0.0025
     19 C          63.8251   90.8409   12.7178 C.ar    1  UNL1       -0.0012
     20 C          64.9516   91.3028   13.5939 C.ar    1  UNL1        0.0196
     21 C          66.0029   92.2198   13.0427 C.ar    1  UNL1        0.1217
     22 C          65.9277   92.6748   11.6154 C.ar    1  UNL1        0.0196
     23 C          64.8011   92.2129   10.7392 C.ar    1  UNL1       -0.0012
     24 S          67.1294   92.6818   13.9188 S.O2    1  UNL1        0.0572
     25 N          68.2559   93.1437   14.7950 N.3     1  UNL1       -0.2035
     26 O          68.1075   91.9536   13.0453 O.2     1  UNL1       -0.1532
     27 O          66.1514   93.4099   14.7924 O.2     1  UNL1       -0.1532
     28 H          69.1383   92.7816   14.4336 H       1  UNL1        0.1442
     29 H          68.1109   92.8004   15.7445 H       1  UNL1        0.1442
@<TRIPOS>BOND
     1     6     7    1
     2     7     5    1
     3     5     1    1
     4     1     2    2
     5     1     3   am
     6     3    17    1
     7    17    18    1
     8    18    19   ar
     9    19    20   ar
    10    20    21   ar
    11    21    24    1
    12    24    25    1
    13    24    26    2
    14    24    27    2
    15    21    22   ar
    16    22    23   ar
    17     7     8    1
    18     8     9    1
    19     9    10    1
    20    10    11    1
    21    11    12    1
    22    12    13    1
    23    13    14    1
    24     9    15    1
    25    15    16    1
    26    16     7    1
    27    23    18   ar
    28    14     9    1
    29     3     4    1
    30    25    28    1
    31    25    29    1
@<TRIPOS>MOLECULE
*****
 29 31 0 0 0
SMALL
GASTEIGER

@<TRIPOS>ATOM
      1 C          61.0655   88.6046   11.8298 C.2     1  UNL1        0.2252
      2 O          60.1051   89.6771   12.2507 O.2     1  UNL1       -0.2750
      3 N          62.5080   88.6892   12.2324 N.am    1  UNL1       -0.3004
      4 H          63.1383   87.9853   11.9561 H       1  UNL1        0.1497
      5 C          60.5834   87.4472   11.0061 C.3     1  UNL1        0.1154
      6 C          60.9516   88.0266    9.1197 C.3     1  UNL1        0.0335
      7 C          61.4605   86.8735    9.9331 C.3     1  UNL1        0.1377
      8 C          61.7861   85.8405   10.9707 C.3     1  UNL1        0.0613
      9 C          62.7581   84.8692   10.3690 C.3     1  UNL1        0.1290
     10 C          63.7219   83.9840    9.6360 C.3     1  UNL1        0.0305
     11 C          64.3146   82.7897   10.3232 C.3     1  UNL1        0.0025
     12 C          63.9435   82.4806   11.7433 C.3     1  UNL1        0.0002
     13 C          62.9797   83.3659   12.4762 C.3     1  UNL1        0.0025
     14 C          62.3869   84.5602   11.7891 C.3     1  UNL1        0.0305
     15 O          63.0332   85.3021    8.9594 O.3     1  UNL1       -0.2256
     16 O          62.2312   86.5409    8.6899 O.3     1  UNL1       -0.2251
     17 C          62.9900   89.8465   13.0560 C.3     1  UNL1        0.1163
     18 C          63.8909   90.8784   12.4447 C.ar    1  UNL1       -0.0025
     19 C          63.7228   91.2621   11.0043 C.ar    1  UNL1       -0.0012
     20 C          64.6237   92.2940   10.3930 C.ar    1  UNL1        0.0196
     21 C          65.6925   92.9422   11.2221 C.ar    1  UNL1        0.1217
     22 C          65.8606   92.5586   12.6624 C.ar    1  UNL1        0.0196
     23 C          64.9597   91.5266   13.2737 C.ar    1  UNL1       -0.0012
     24 S          66.5934   93.9741   10.6107 S.O2    1  UNL1        0.0572
     25 N          67.4942   95.0059    9.9993 N.3     1  UNL1       -0.2035
     26 O          65.4555   94.9510   10.5828 O.2     1  UNL1       -0.1532
     27 O          67.7313   92.9972   10.6386 O.2     1  UNL1       -0.1532
     28 H          66.9689   95.8661    9.8429 H       1  UNL1        0.1442
     29 H          67.8528   94.6599    9.1094 H       1  UNL1        0.1442
@<TRIPOS>BOND
     1     6     7    1
     2     7     5    1
     3     5     1    1
     4     1     2    2
     5     1     3   am
     6     3    17    1
     7    17    18    1
     8    18    19   ar
     9    19    20   ar
    10    20    21   ar
    11    21    24    1
    12    24    25    1
    13    24    26    2
    14    24    27    2
    15    21    22   ar
    16    22    23   ar
    17     7     8    1
    18     8     9    1
    19     9    10    1
    20    10    11    1
    21    11    12    1
    22    12    13    1
    23    13    14    1
    24     9    15    1
    25    15    16    1
    26    16     7    1
    27    23    18   ar
    28    14     9    1
    29     3     4    1
    30    25    28    1
    31    25    29    1
@<TRIPOS>MOLECULE
*****
 29 31 0 0 0
SMALL
GASTEIGER

@<TRIPOS>ATOM
      1 C          64.2323   91.1709   12.9705 C.2     1  UNL1        0.2252
      2 O          64.8833   92.0168   11.9167 O.2     1  UNL1       -0.2750
      3 N          62.8566   90.6174   12.7439 N.am    1  UNL1       -0.3004
      4 H          62.4292   90.0623   13.4356 H       1  UNL1        0.1497
      5 C          64.9568   90.8785   14.2510 C.3     1  UNL1        0.1154
      6 C          64.1766   92.0213   15.7052 C.3     1  UNL1        0.0335
      7 C          64.1827   90.5369   15.4895 C.3     1  UNL1        0.1377
      8 C          64.3507   89.1239   15.0148 C.3     1  UNL1        0.0613
      9 C          63.6791   88.2193   16.0052 C.3     1  UNL1        0.1290
     10 C          62.9699   87.4443   17.0758 C.3     1  UNL1        0.0305
     11 C          62.8946   85.9484   16.9938 C.3     1  UNL1        0.0025
     12 C          63.5285   85.2276   15.8411 C.3     1  UNL1        0.0002
     13 C          64.2377   86.0026   14.7705 C.3     1  UNL1        0.0025
     14 C          64.3130   87.4985   14.8525 C.3     1  UNL1        0.0305
     15 O          63.0960   89.0732   17.0919 O.3     1  UNL1       -0.2256
     16 O          63.4073   90.5056   16.7732 O.3     1  UNL1       -0.2251
     17 C          62.1321   90.9099   11.4635 C.3     1  UNL1        0.1163
     18 C          61.6505   89.7820   10.5998 C.ar    1  UNL1       -0.0025
     19 C          60.4246   89.9563    9.7532 C.ar    1  UNL1       -0.0012
     20 C          59.9430   88.8284    8.8895 C.ar    1  UNL1        0.0196
     21 C          60.6874   87.5263    8.8724 C.ar    1  UNL1        0.1217
     22 C          61.9133   87.3520    9.7189 C.ar    1  UNL1        0.0196
     23 C          62.3949   88.4799   10.5826 C.ar    1  UNL1       -0.0012
     24 S          60.2058   86.3984    8.0086 S.O2    1  UNL1        0.0572
     25 N          59.7242   85.2706    7.1449 N.3     1  UNL1       -0.2035
     26 O          61.6049   85.8638    7.9265 O.2     1  UNL1       -0.1532
     27 O          58.8067   86.9330    8.0907 O.2     1  UNL1       -0.1532
     28 H          60.5119   84.6722    6.8964 H       1  UNL1        0.1442
     29 H          59.3031   85.6482    6.2960 H       1  UNL1        0.1442
@<TRIPOS>BOND
     1     6     7    1
     2     7     5    1
     3     5     1    1
     4     1     2    2
     5     1     3   am
     6     3    17    1
     7    17    18    1
     8    18    19   ar
     9    19    20   ar
    10    20    21   ar
    11    21    24    1
    12    24    25    1
    13    24    26    2
    14    24    27    2
    15    21    22   ar
    16    22    23   ar
    17     7     8    1
    18     8     9    1
    19     9    10    1
    20    10    11    1
    21    11    12    1
    22    12    13    1
    23    13    14    1
    24     9    15    1
    25    15    16    1
    26    16     7    1
    27    23    18   ar
    28    14     9    1
    29     3     4    1
    30    25    28    1
    31    25    29    1
@<TRIPOS>MOLECULE
*****
 29 31 0 0 0
SMALL
GASTEIGER

@<TRIPOS>ATOM
      1 C          63.8313   90.0395   13.7070 C.2     1  UNL1        0.2252
      2 O          64.7200   90.6826   12.6841 O.2     1  UNL1       -0.2750
      3 N          62.3770   89.8249   13.4085 N.am    1  UNL1       -0.3004
      4 H          61.7937   89.4028   14.0799 H       1  UNL1        0.1497
      5 C          64.3969   89.6109   15.0287 C.3     1  UNL1        0.1154
      6 C          63.2413   90.0259   16.6168 C.3     1  UNL1        0.0335
      7 C          63.5910   88.7336   15.9402 C.3     1  UNL1        0.1377
      8 C          64.1091   87.6248   15.0730 C.3     1  UNL1        0.0613
      9 C          63.5504   86.3322   15.5901 C.3     1  UNL1        0.1290
     10 C          62.9187   85.1249   16.2171 C.3     1  UNL1        0.0305
     11 C          63.1780   83.7617   15.6475 C.3     1  UNL1        0.0025
     12 C          64.0689   83.6059   14.4508 C.3     1  UNL1        0.0002
     13 C          64.7005   84.8133   13.8237 C.3     1  UNL1        0.0025
     14 C          64.4412   86.1764   14.3934 C.3     1  UNL1        0.0305
     15 O          62.6868   86.6423   16.7768 O.3     1  UNL1       -0.2256
     16 O          62.7119   88.1265   16.9932 O.3     1  UNL1       -0.2251
     17 C          61.8116   90.2535   12.0869 C.3     1  UNL1        0.1163
     18 C          61.4850   89.2274   11.0427 C.ar    1  UNL1       -0.0025
     19 C          60.4746   89.5363    9.9779 C.ar    1  UNL1       -0.0012
     20 C          60.1480   88.5102    8.9336 C.ar    1  UNL1        0.0196
     21 C          60.8317   87.1753    8.9542 C.ar    1  UNL1        0.1217
     22 C          61.8420   86.8664   10.0189 C.ar    1  UNL1        0.0196
     23 C          62.1687   87.8925   11.0632 C.ar    1  UNL1       -0.0012
     24 S          60.5051   86.1492    7.9098 S.O2    1  UNL1        0.0572
     25 N          60.1783   85.1232    6.8656 N.3     1  UNL1       -0.2035
     26 O          61.9307   85.6830    7.9219 O.2     1  UNL1       -0.1532
     27 O          59.0794   86.6154    7.8978 O.2     1  UNL1       -0.1532
     28 H          61.0183   84.5917    6.6366 H       1  UNL1        0.1442
     29 H          59.8321   85.5897    6.0272 H       1  UNL1        0.1442
@<TRIPOS>BOND
     1     6     7    1
     2     7     5    1
     3     5     1    1
     4     1     2    2
     5     1     3   am
     6     3    17    1
     7    17    18    1
     8    18    19   ar
     9    19    20   ar
    10    20    21   ar
    11    21    24    1
    12    24    25    1
    13    24    26    2
    14    24    27    2
    15    21    22   ar
    16    22    23   ar
    17     7     8    1
    18     8     9    1
    19     9    10    1
    20    10    11    1
    21    11    12    1
    22    12    13    1
    23    13    14    1
    24     9    15    1
    25    15    16    1
    26    16     7    1
    27    23    18   ar
    28    14     9    1
    29     3     4    1
    30    25    28    1
    31    25    29    1
@<TRIPOS>MOLECULE
*****
 29 31 0 0 0
SMALL
GASTEIGER

@<TRIPOS>ATOM
      1 C          62.3022   89.4043   10.9770 C.2     1  UNL1        0.2252
      2 O          62.2447   90.0728    9.6355 O.2     1  UNL1       -0.2750
      3 N          63.0115   90.0718   12.1178 N.am    1  UNL1       -0.3004
      4 H          63.0492   89.6330   12.9983 H       1  UNL1        0.1497
      5 C          61.6502   88.0683   11.1778 C.3     1  UNL1        0.1154
      6 C          59.6864   88.4833   11.1503 C.3     1  UNL1        0.0335
      7 C          60.5442   87.6288   10.2650 C.3     1  UNL1        0.1377
      8 C          61.6333   86.8662    9.5704 C.3     1  UNL1        0.0613
      9 C          61.0210   86.1338    8.4133 C.3     1  UNL1        0.1290
     10 C          60.2716   85.4645    7.2996 C.3     1  UNL1        0.0305
     11 C          60.9990   84.5779    6.3328 C.3     1  UNL1        0.0025
     12 C          62.4759   84.3606    6.4798 C.3     1  UNL1        0.0002
     13 C          63.2253   85.0299    7.5934 C.3     1  UNL1        0.0025
     14 C          62.4979   85.9165    8.5602 C.3     1  UNL1        0.0305
     15 O          59.5535   86.4439    8.3927 O.3     1  UNL1       -0.2256
     16 O          59.2588   87.3678    9.5371 O.3     1  UNL1       -0.2251
     17 C          63.6634   91.4077   11.9169 C.3     1  UNL1        0.1163
     18 C          64.8172   91.8171   12.7836 C.ar    1  UNL1       -0.0025
     19 C          65.1137   91.0605   14.0444 C.ar    1  UNL1       -0.0012
     20 C          66.2675   91.4699   14.9110 C.ar    1  UNL1        0.0196
     21 C          67.1249   92.6358   14.5168 C.ar    1  UNL1        0.1217
     22 C          66.8284   93.3924   13.2561 C.ar    1  UNL1        0.0196
     23 C          65.6746   92.9831   12.3894 C.ar    1  UNL1       -0.0012
     24 S          68.2787   93.0452   15.3836 S.O2    1  UNL1        0.0572
     25 N          69.4325   93.4545   16.2503 N.3     1  UNL1       -0.2035
     26 O          69.2303   92.7191   14.2708 O.2     1  UNL1       -0.1532
     27 O          67.3272   93.3712   16.4963 O.2     1  UNL1       -0.1532
     28 H          70.3041   93.3383   15.7334 H       1  UNL1        0.1442
     29 H          69.4530   92.8713   17.0869 H       1  UNL1        0.1442
@<TRIPOS>BOND
     1     6     7    1
     2     7     5    1
     3     5     1    1
     4     1     2    2
     5     1     3   am
     6     3    17    1
     7    17    18    1
     8    18    19   ar
     9    19    20   ar
    10    20    21   ar
    11    21    24    1
    12    24    25    1
    13    24    26    2
    14    24    27    2
    15    21    22   ar
    16    22    23   ar
    17     7     8    1
    18     8     9    1
    19     9    10    1
    20    10    11    1
    21    11    12    1
    22    12    13    1
    23    13    14    1
    24     9    15    1
    25    15    16    1
    26    16     7    1
    27    23    18   ar
    28    14     9    1
    29     3     4    1
    30    25    28    1
    31    25    29    1
@<TRIPOS>MOLECULE
*****
 29 31 0 0 0
SMALL
GASTEIGER

@<TRIPOS>ATOM
      1 C          63.0974   84.4119    9.9528 C.2     1  UNL1        0.2252
      2 O          61.9807   84.6128   10.9339 O.2     1  UNL1       -0.2750
      3 N          64.2146   83.4632   10.2719 N.am    1  UNL1       -0.3004
      4 H          64.9475   83.3313    9.6279 H       1  UNL1        0.1497
      5 C          63.0969   85.1598    8.6524 C.3     1  UNL1        0.1154
      6 C          61.7461   84.8347    7.2035 C.3     1  UNL1        0.0335
      7 C          61.8780   85.9234    8.2269 C.3     1  UNL1        0.1377
      8 C          62.2647   86.8524    9.3393 C.3     1  UNL1        0.0613
      9 C          61.2571   87.9627    9.3874 C.3     1  UNL1        0.1290
     10 C          60.1784   89.0024    9.3145 C.3     1  UNL1        0.0305
     11 C          60.1800   90.1534   10.2763 C.3     1  UNL1        0.0025
     12 C          61.2603   90.2647   11.3110 C.3     1  UNL1        0.0002
     13 C          62.3390   89.2250   11.3839 C.3     1  UNL1        0.0025
     14 C          62.3374   88.0740   10.4220 C.3     1  UNL1        0.0305
     15 O          60.2477   87.7198    8.3047 O.3     1  UNL1       -0.2256
     16 O          60.6314   86.4594    7.5874 O.3     1  UNL1       -0.2251
     17 C          64.2150   82.7153   11.5721 C.3     1  UNL1        0.1163
     18 C          63.8162   83.4130   12.8387 C.ar    1  UNL1       -0.0025
     19 C          64.5821   84.6151   13.3059 C.ar    1  UNL1       -0.0012
     20 C          64.1833   85.3128   14.5725 C.ar    1  UNL1        0.0196
     21 C          63.0186   84.8084   15.3718 C.ar    1  UNL1        0.1217
     22 C          62.2528   83.6063   14.9047 C.ar    1  UNL1        0.0196
     23 C          62.6515   82.9085   13.6380 C.ar    1  UNL1       -0.0012
     24 S          62.6199   85.5061   16.6384 S.O2    1  UNL1        0.0572
     25 N          62.2210   86.2038   17.9050 N.3     1  UNL1       -0.2035
     26 O          64.0629   85.6140   17.0334 O.2     1  UNL1       -0.1532
     27 O          61.1768   85.3982   16.2435 O.2     1  UNL1       -0.1532
     28 H          63.0558   86.4312   18.4452 H       1  UNL1        0.1442
     29 H          61.6167   85.5926   18.4541 H       1  UNL1        0.1442
@<TRIPOS>BOND
     1     6     7    1
     2     7     5    1
     3     5     1    1
     4     1     2    2
     5     1     3   am
     6     3    17    1
     7    17    18    1
     8    18    19   ar
     9    19    20   ar
    10    20    21   ar
    11    21    24    1
    12    24    25    1
    13    24    26    2
    14    24    27    2
    15    21    22   ar
    16    22    23   ar
    17     7     8    1
    18     8     9    1
    19     9    10    1
    20    10    11    1
    21    11    12    1
    22    12    13    1
    23    13    14    1
    24     9    15    1
    25    15    16    1
    26    16     7    1
    27    23    18   ar
    28    14     9    1
    29     3     4    1
    30    25    28    1
    31    25    29    1
