@<TRIPOS>MOLECULE
*****
 18 20 0 0 0
SMALL
GASTEIGER

@<TRIPOS>ATOM
      1 C          62.2870   89.7640   10.2995 C.3     1  UNL1        0.0312
      2 C          62.1941   88.2708   10.4068 C.ar    1  UNL1       -0.0163
      3 C          61.5382   87.4797    9.3141 C.ar    1  UNL1       -0.0040
      4 C          61.4452   85.9864    9.4214 C.ar    1  UNL1        0.0010
      5 C          62.0082   85.2842   10.6214 C.ar    1  UNL1        0.0147
      6 C          62.6641   86.0753   11.7141 C.ar    1  UNL1        0.0531
      7 C          62.7571   87.5685   11.6068 C.ar    1  UNL1        0.0628
      8 C          63.4130   88.3596   12.6995 C.2     1  UNL1        0.2479
      9 O          63.5059   89.8529   12.5922 O.2     1  UNL1       -0.2701
     10 N          63.9759   87.6574   13.8995 N.am    1  UNL1       -0.2855
     11 C          63.8830   86.1641   14.0068 C.3     1  UNL1        0.1653
     12 C          64.4459   85.4619   15.2068 C.3     1  UNL1        0.1097
     13 N          64.3530   83.9686   15.3140 N.3     1  UNL1       -0.2932
     14 C          63.6971   83.1776   14.2213 C.3     1  UNL1        0.0904
     15 C          63.1341   83.8798   13.0213 C.3     1  UNL1        0.1093
     16 N          63.2271   85.3730   12.9141 N.pl3   1  UNL1       -0.2909
     17 H          64.4064   88.1766   14.6166 H       1  UNL1        0.1512
     18 H          63.8403   83.7664   16.1723 H       1  UNL1        0.1234
@<TRIPOS>BOND
     1     1     2    1
     2     2     3   ar
     3     3     4   ar
     4     4     5   ar
     5     5     6   ar
     6     6     7   ar
     7     7     8    1
     8     8     9    2
     9     8    10   am
    10    10    11    1
    11    11    12    1
    12    12    13    1
    13    13    14    1
    14    14    15    1
    15    15    16    1
    16     7     2   ar
    17    16    11    1
    18    16     6    1
    19    10    17    1
    20    13    18    1
@<TRIPOS>MOLECULE
*****
 18 20 0 0 0
SMALL
GASTEIGER

@<TRIPOS>ATOM
      1 C          63.9102   87.7973   13.4691 C.3     1  UNL1        0.0312
      2 C          63.2796   88.6923   12.4439 C.ar    1  UNL1       -0.0163
      3 C          63.5637   90.1651   12.4576 C.ar    1  UNL1       -0.0040
      4 C          62.9331   91.0602   11.4322 C.ar    1  UNL1        0.0010
      5 C          62.0184   90.4824   10.3932 C.ar    1  UNL1        0.0147
      6 C          61.7344   89.0096   10.3795 C.ar    1  UNL1        0.0531
      7 C          62.3649   88.1146   11.4048 C.ar    1  UNL1        0.0628
      8 C          62.0809   86.6418   11.3910 C.2     1  UNL1        0.2479
      9 O          62.7115   85.7467   12.4164 O.2     1  UNL1       -0.2701
     10 N          61.1662   86.0640   10.3520 N.am    1  UNL1       -0.2855
     11 C          60.5356   86.9591    9.3267 C.3     1  UNL1        0.1653
     12 C          59.6210   86.3814    8.2876 C.3     1  UNL1        0.1097
     13 N          58.9904   87.2764    7.2624 N.3     1  UNL1       -0.2932
     14 C          59.2745   88.7492    7.2761 C.3     1  UNL1        0.0904
     15 C          60.1891   89.3269    8.3151 C.3     1  UNL1        0.1093
     16 N          60.8197   88.4319    9.3404 N.pl3   1  UNL1       -0.2909
     17 H          60.9798   85.0974   10.3430 H       1  UNL1        0.1512
     18 H          57.9806   87.1704    7.3601 H       1  UNL1        0.1234
@<TRIPOS>BOND
     1     1     2    1
     2     2     3   ar
     3     3     4   ar
     4     4     5   ar
     5     5     6   ar
     6     6     7   ar
     7     7     8    1
     8     8     9    2
     9     8    10   am
    10    10    11    1
    11    11    12    1
    12    12    13    1
    13    13    14    1
    14    14    15    1
    15    15    16    1
    16     7     2   ar
    17    16    11    1
    18    16     6    1
    19    10    17    1
    20    13    18    1
@<TRIPOS>MOLECULE
*****
 18 20 0 0 0
SMALL
GASTEIGER

@<TRIPOS>ATOM
      1 C          62.8017   89.7814   11.4948 C.3     1  UNL1        0.0312
      2 C          62.5019   88.3530   11.1488 C.ar    1  UNL1       -0.0163
      3 C          61.8119   88.0229    9.8584 C.ar    1  UNL1       -0.0040
      4 C          61.5121   86.5944    9.5124 C.ar    1  UNL1        0.0010
      5 C          61.9022   85.4962   10.4566 C.ar    1  UNL1        0.0147
      6 C          62.5922   85.8264   11.7470 C.ar    1  UNL1        0.0531
      7 C          62.8920   87.2547   12.0930 C.ar    1  UNL1        0.0628
      8 C          63.5820   87.5849   13.3834 C.2     1  UNL1        0.2479
      9 O          63.8818   89.0133   13.7294 O.2     1  UNL1       -0.2701
     10 N          63.9721   86.4867   14.3276 N.am    1  UNL1       -0.2855
     11 C          63.6722   85.0582   13.9816 C.3     1  UNL1        0.1653
     12 C          64.0624   83.9600   14.9259 C.3     1  UNL1        0.1097
     13 N          63.7625   82.5316   14.5798 N.3     1  UNL1       -0.2932
     14 C          63.0726   82.2015   13.2895 C.3     1  UNL1        0.0904
     15 C          62.6824   83.2997   12.3452 C.3     1  UNL1        0.1093
     16 N          62.9823   84.7280   12.6913 N.pl3   1  UNL1       -0.2909
     17 H          64.4249   86.7034   15.1745 H       1  UNL1        0.1512
     18 H          63.1768   82.1638   15.3294 H       1  UNL1        0.1234
@<TRIPOS>BOND
     1     1     2    1
     2     2     3   ar
     3     3     4   ar
     4     4     5   ar
     5     5     6   ar
     6     6     7   ar
     7     7     8    1
     8     8     9    2
     9     8    10   am
    10    10    11    1
    11    11    12    1
    12    12    13    1
    13    13    14    1
    14    14    15    1
    15    15    16    1
    16     7     2   ar
    17    16    11    1
    18    16     6    1
    19    10    17    1
    20    13    18    1
@<TRIPOS>MOLECULE
*****
 18 20 0 0 0
SMALL
GASTEIGER

@<TRIPOS>ATOM
      1 C          61.8475   89.7478   11.9639 C.3     1  UNL1        0.0312
      2 C          63.0115   90.6767   11.7846 C.ar    1  UNL1       -0.0163
      3 C          63.3739   91.1693   10.4149 C.ar    1  UNL1       -0.0040
      4 C          64.5379   92.0983   10.2356 C.ar    1  UNL1        0.0010
      5 C          65.3395   92.5347   11.4260 C.ar    1  UNL1        0.0147
      6 C          64.9771   92.0421   12.7957 C.ar    1  UNL1        0.0531
      7 C          63.8131   91.1132   12.9750 C.ar    1  UNL1        0.0628
      8 C          63.4507   90.6206   14.3447 C.2     1  UNL1        0.2479
      9 O          62.2867   89.6916   14.5239 O.2     1  UNL1       -0.2701
     10 N          64.2523   91.0569   15.5350 N.am    1  UNL1       -0.2855
     11 C          65.4163   91.9859   15.3558 C.3     1  UNL1        0.1653
     12 C          66.2179   92.4223   16.5461 C.3     1  UNL1        0.1097
     13 N          67.3818   93.3513   16.3668 N.3     1  UNL1       -0.2932
     14 C          67.7442   93.8439   14.9972 C.3     1  UNL1        0.0904
     15 C          66.9427   93.4075   13.8068 C.3     1  UNL1        0.1093
     16 N          65.7787   92.4785   13.9861 N.pl3   1  UNL1       -0.2909
     17 H          64.0144   90.7336   16.4340 H       1  UNL1        0.1512
     18 H          68.2026   92.8690   16.7330 H       1  UNL1        0.1234
@<TRIPOS>BOND
     1     1     2    1
     2     2     3   ar
     3     3     4   ar
     4     4     5   ar
     5     5     6   ar
     6     6     7   ar
     7     7     8    1
     8     8     9    2
     9     8    10   am
    10    10    11    1
    11    11    12    1
    12    12    13    1
    13    13    14    1
    14    14    15    1
    15    15    16    1
    16     7     2   ar
    17    16    11    1
    18    16     6    1
    19    10    17    1
    20    13    18    1
@<TRIPOS>MOLECULE
*****
 18 20 0 0 0
SMALL
GASTEIGER

@<TRIPOS>ATOM
      1 C          62.5830   90.0855   11.0454 C.3     1  UNL1        0.0312
      2 C          63.1915   89.3929   12.2286 C.ar    1  UNL1       -0.0163
      3 C          63.8783   90.1935   13.2950 C.ar    1  UNL1       -0.0040
      4 C          64.4868   89.5008   14.4781 C.ar    1  UNL1        0.0010
      5 C          64.4085   88.0074   14.5949 C.ar    1  UNL1        0.0147
      6 C          63.7217   87.2067   13.5285 C.ar    1  UNL1        0.0531
      7 C          63.1132   87.8994   12.3454 C.ar    1  UNL1        0.0628
      8 C          62.4264   87.0987   11.2790 C.2     1  UNL1        0.2479
      9 O          61.8179   87.7915   10.0958 O.2     1  UNL1       -0.2701
     10 N          62.3480   85.6054   11.3958 N.am    1  UNL1       -0.2855
     11 C          62.9565   84.9126   12.5789 C.3     1  UNL1        0.1653
     12 C          62.8782   83.4192   12.6957 C.3     1  UNL1        0.1097
     13 N          63.4867   82.7266   13.8789 N.3     1  UNL1       -0.2932
     14 C          64.1735   83.5272   14.9452 C.3     1  UNL1        0.0904
     15 C          64.2518   85.0206   14.8285 C.3     1  UNL1        0.1093
     16 N          63.6434   85.7133   13.6453 N.pl3   1  UNL1       -0.2909
     17 H          61.8972   85.0799   10.6958 H       1  UNL1        0.1512
     18 H          64.1765   82.0703   13.5131 H       1  UNL1        0.1234
@<TRIPOS>BOND
     1     1     2    1
     2     2     3   ar
     3     3     4   ar
     4     4     5   ar
     5     5     6   ar
     6     6     7   ar
     7     7     8    1
     8     8     9    2
     9     8    10   am
    10    10    11    1
    11    11    12    1
    12    12    13    1
    13    13    14    1
    14    14    15    1
    15    15    16    1
    16     7     2   ar
    17    16    11    1
    18    16     6    1
    19    10    17    1
    20    13    18    1
@<TRIPOS>MOLECULE
*****
 18 20 0 0 0
SMALL
GASTEIGER

@<TRIPOS>ATOM
      1 C          62.4528   87.6321   12.0390 C.3     1  UNL1        0.0312
      2 C          62.9370   88.9947   11.6407 C.ar    1  UNL1       -0.0163
      3 C          62.5468   89.5705   10.3117 C.ar    1  UNL1       -0.0040
      4 C          63.0311   90.9333    9.9134 C.ar    1  UNL1        0.0010
      5 C          63.9054   91.7201   10.8442 C.ar    1  UNL1        0.0147
      6 C          64.2956   91.1444   12.1732 C.ar    1  UNL1        0.0531
      7 C          63.8114   89.7817   12.5715 C.ar    1  UNL1        0.0628
      8 C          64.2016   89.2059   13.9005 C.2     1  UNL1        0.2479
      9 O          63.7173   87.8432   14.2987 O.2     1  UNL1       -0.2701
     10 N          65.0759   89.9928   14.8312 N.am    1  UNL1       -0.2855
     11 C          65.5601   91.3556   14.4329 C.3     1  UNL1        0.1653
     12 C          66.4345   92.1425   15.3636 C.3     1  UNL1        0.1097
     13 N          66.9186   93.5051   14.9654 N.3     1  UNL1       -0.2932
     14 C          66.5285   94.0809   13.6363 C.3     1  UNL1        0.0904
     15 C          65.6541   93.2940   12.7056 C.3     1  UNL1        0.1093
     16 N          65.1700   91.9313   13.1039 N.pl3   1  UNL1       -0.2909
     17 H          65.3320   89.6149   15.7034 H       1  UNL1        0.1512
     18 H          67.9379   93.4726   14.9844 H       1  UNL1        0.1234
@<TRIPOS>BOND
     1     1     2    1
     2     2     3   ar
     3     3     4   ar
     4     4     5   ar
     5     5     6   ar
     6     6     7   ar
     7     7     8    1
     8     8     9    2
     9     8    10   am
    10    10    11    1
    11    11    12    1
    12    12    13    1
    13    13    14    1
    14    14    15    1
    15    15    16    1
    16     7     2   ar
    17    16    11    1
    18    16     6    1
    19    10    17    1
    20    13    18    1
@<TRIPOS>MOLECULE
*****
 18 20 0 0 0
SMALL
GASTEIGER

@<TRIPOS>ATOM
      1 C          63.8610   83.7384   13.7545 C.3     1  UNL1        0.0312
      2 C          63.8701   85.2383   13.7442 C.ar    1  UNL1       -0.0163
      3 C          64.5780   85.9915   14.8312 C.ar    1  UNL1       -0.0040
      4 C          64.5870   87.4915   14.8209 C.ar    1  UNL1        0.0010
      5 C          63.8882   88.2382   13.7236 C.ar    1  UNL1        0.0147
      6 C          63.1803   87.4850   12.6366 C.ar    1  UNL1        0.0531
      7 C          63.1713   85.9851   12.6469 C.ar    1  UNL1        0.0628
      8 C          62.4634   85.2319   11.5599 C.2     1  UNL1        0.2479
      9 O          62.4544   83.7319   11.5702 O.2     1  UNL1       -0.2701
     10 N          61.7646   85.9786   10.4626 N.am    1  UNL1       -0.2855
     11 C          61.7736   87.4786   10.4523 C.3     1  UNL1        0.1653
     12 C          61.0748   88.2253    9.3550 C.3     1  UNL1        0.1097
     13 N          61.0839   89.7252    9.3448 N.3     1  UNL1       -0.2932
     14 C          61.7918   90.4784   10.4318 C.3     1  UNL1        0.0904
     15 C          62.4906   89.7317   11.5290 C.3     1  UNL1        0.1093
     16 N          62.4815   88.2318   11.5393 N.pl3   1  UNL1       -0.2909
     17 H          61.3000   85.4842    9.7492 H       1  UNL1        0.1512
     18 H          60.1094   90.0257    9.3648 H       1  UNL1        0.1234
@<TRIPOS>BOND
     1     1     2    1
     2     2     3   ar
     3     3     4   ar
     4     4     5   ar
     5     5     6   ar
     6     6     7   ar
     7     7     8    1
     8     8     9    2
     9     8    10   am
    10    10    11    1
    11    11    12    1
    12    12    13    1
    13    13    14    1
    14    14    15    1
    15    15    16    1
    16     7     2   ar
    17    16    11    1
    18    16     6    1
    19    10    17    1
    20    13    18    1
@<TRIPOS>MOLECULE
*****
 18 20 0 0 0
SMALL
GASTEIGER

@<TRIPOS>ATOM
      1 C          60.8816   88.9647    9.1648 C.3     1  UNL1        0.0312
      2 C          61.7763   89.0593   10.3650 C.ar    1  UNL1       -0.0163
      3 C          62.2880   90.3954   10.8156 C.ar    1  UNL1       -0.0040
      4 C          63.1828   90.4899   12.0159 C.ar    1  UNL1        0.0010
      5 C          63.5658   89.2484   12.7655 C.ar    1  UNL1        0.0147
      6 C          63.0541   87.9123   12.3148 C.ar    1  UNL1        0.0531
      7 C          62.1593   87.8177   11.1147 C.ar    1  UNL1        0.0628
      8 C          61.6476   86.4817   10.6640 C.2     1  UNL1        0.2479
      9 O          60.7529   86.3872    9.4638 O.2     1  UNL1       -0.2701
     10 N          62.0306   85.2402   11.4136 N.am    1  UNL1       -0.2855
     11 C          62.9254   85.3347   12.6139 C.3     1  UNL1        0.1653
     12 C          63.3084   84.0932   13.3635 C.3     1  UNL1        0.1097
     13 N          64.2031   84.1877   14.5636 N.3     1  UNL1       -0.2932
     14 C          64.7148   85.5238   15.0143 C.3     1  UNL1        0.0904
     15 C          64.3318   86.7653   14.2647 C.3     1  UNL1        0.1093
     16 N          63.4371   86.6708   13.0645 N.pl3   1  UNL1       -0.2909
     17 H          61.6948   84.3633   11.1179 H       1  UNL1        0.1512
     18 H          65.0206   83.6101   14.3677 H       1  UNL1        0.1234
@<TRIPOS>BOND
     1     1     2    1
     2     2     3   ar
     3     3     4   ar
     4     4     5   ar
     5     5     6   ar
     6     6     7   ar
     7     7     8    1
     8     8     9    2
     9     8    10   am
    10    10    11    1
    11    11    12    1
    12    12    13    1
    13    13    14    1
    14    14    15    1
    15    15    16    1
    16     7     2   ar
    17    16    11    1
    18    16     6    1
    19    10    17    1
    20    13    18    1
@<TRIPOS>MOLECULE
*****
 18 20 0 0 0
SMALL
GASTEIGER

@<TRIPOS>ATOM
      1 C          59.7867   87.7071    8.7889 C.3     1  UNL1        0.0312
      2 C          60.7792   86.5987    8.5985 C.ar    1  UNL1       -0.0163
      3 C          61.0527   86.0648    7.2237 C.ar    1  UNL1       -0.0040
      4 C          62.0454   84.9564    7.0333 C.ar    1  UNL1        0.0010
      5 C          62.7645   84.3820    8.2177 C.ar    1  UNL1        0.0147
      6 C          62.4909   84.9158    9.5925 C.ar    1  UNL1        0.0531
      7 C          61.4984   86.0242    9.7830 C.ar    1  UNL1        0.0628
      8 C          61.2249   86.5581   11.1578 C.2     1  UNL1        0.2479
      9 O          60.2322   87.6665   11.3482 O.2     1  UNL1       -0.2701
     10 N          61.9439   85.9836   12.3422 N.am    1  UNL1       -0.2855
     11 C          62.9366   84.8752   12.1518 C.3     1  UNL1        0.1653
     12 C          63.6556   84.3007   13.3362 C.3     1  UNL1        0.1097
     13 N          64.6482   83.1924   13.1458 N.3     1  UNL1       -0.2932
     14 C          64.9217   82.6585   11.7710 C.3     1  UNL1        0.0904
     15 C          64.2026   83.2330   10.5866 C.3     1  UNL1        0.1093
     16 N          63.2101   84.3413   10.7770 N.pl3   1  UNL1       -0.2909
     17 H          61.7644   86.3340   13.2445 H       1  UNL1        0.1512
     18 H          64.3227   82.4058   13.7078 H       1  UNL1        0.1234
@<TRIPOS>BOND
     1     1     2    1
     2     2     3   ar
     3     3     4   ar
     4     4     5   ar
     5     5     6   ar
     6     6     7   ar
     7     7     8    1
     8     8     9    2
     9     8    10   am
    10    10    11    1
    11    11    12    1
    12    12    13    1
    13    13    14    1
    14    14    15    1
    15    15    16    1
    16     7     2   ar
    17    16    11    1
    18    16     6    1
    19    10    17    1
    20    13    18    1
