@<TRIPOS>MOLECULE
*****
 37 41 0 0 0
SMALL
GASTEIGER

@<TRIPOS>ATOM
      1 N          63.7155   90.1512   13.3417 N.3     1  UNL1       -0.2679
      2 C          64.5260   91.2943   12.8066 C.3     1  UNL1        0.0978
      3 C          64.4126   91.6828   11.3622 C.3     1  UNL1        0.0224
      4 C          65.2231   92.8259   10.8272 C.3     1  UNL1        0.0065
      5 C          66.1471   93.5806   11.7364 C.3     1  UNL1        0.0277
      6 C          66.2605   93.1921   13.1808 C.ar    1  UNL1       -0.0073
      7 C          67.1844   93.9468   14.0901 C.ar    1  UNL1       -0.0015
      8 C          67.2978   93.5583   15.5345 C.ar    1  UNL1        0.0203
      9 C          66.4873   92.4152   16.0696 C.ar    1  UNL1        0.0985
     10 N          65.5634   91.6605   15.1603 N.ar    1  UNL1       -0.2471
     11 C          65.4499   92.0490   13.7159 C.ar    1  UNL1        0.0695
     12 C          64.3869   89.0482   14.1049 C.3     1  UNL1        0.0725
     13 C          63.8591   88.6357   15.4471 C.3     1  UNL1        0.0187
     14 C          62.8774   87.5327   16.9701 C.3     1  UNL1        0.0014
     15 C          63.7300   87.1805   15.7872 C.3     1  UNL1        0.0158
     16 C          64.5825   86.8283   14.6044 C.3     1  UNL1        0.0014
     17 C          63.6008   85.7253   16.1274 C.3     1  UNL1        0.0685
     18 N          62.3805   84.9619   15.7054 N.3     1  UNL1       -0.2984
     19 H          61.6623   85.6524   15.4866 H       1  UNL1        0.1232
     20 C          62.4495   84.0238   14.5369 C.3     1  UNL1        0.0590
     21 C          62.6800   84.5617   13.1558 C.3     1  UNL1        0.0478
     22 C          62.7491   83.6236   11.9874 C.3     1  UNL1        0.1435
     23 O          62.5876   82.1476   12.2001 O.3     1  UNL1       -0.3537
     24 C          62.3572   81.6097   13.5813 C.3     1  UNL1        0.1435
     25 C          62.2881   82.5478   14.7496 C.3     1  UNL1        0.0478
     26 C          62.2335   90.1110   13.1135 C.3     1  UNL1        0.0886
     27 C          61.6808   89.4415   11.8903 C.3     1  UNL1        0.0748
     28 C          62.3474   88.2153   11.3406 C.3     1  UNL1        0.0432
     29 C          61.7947   87.5458   10.1173 C.ar    1  UNL1       -0.0234
     30 C          62.4612   86.3196    9.5676 C.ar    1  UNL1       -0.0045
     31 C          61.9085   85.6501    8.3444 C.ar    1  UNL1       -0.0003
     32 C          60.6893   86.2068    7.6709 C.ar    1  UNL1       -0.0003
     33 C          60.0228   87.4330    8.2206 C.ar    1  UNL1       -0.0032
     34 C          60.5755   88.1024    9.4438 C.ar    1  UNL1       -0.0103
     35 C          59.9089   89.3287    9.9935 C.3     1  UNL1        0.0953
     36 N          60.4616   89.9982   11.2167 N.3     1  UNL1       -0.2934
     37 H          59.7162   90.0012   11.9130 H       1  UNL1        0.1236
@<TRIPOS>BOND
     1    14    15    1
     2    15    16    1
     3    15    13    1
     4    13    12    1
     5    12     1    1
     6     1    26    1
     7    27    26    1
     8    27    28    1
     9    28    29    1
    10    29    30   ar
    11    30    31   ar
    12    31    32   ar
    13    32    33   ar
    14    33    34   ar
    15    34    35    1
    16    35    36    1
    17     2     1    1
    18     2     3    1
    19     3     4    1
    20     4     5    1
    21     5     6    1
    22     6     7   ar
    23     7     8   ar
    24     8     9   ar
    25     9    10   ar
    26    10    11   ar
    27    15    17    1
    28    17    18    1
    29    18    20    1
    30    20    21    1
    31    21    22    1
    32    22    23    1
    33    23    24    1
    34    24    25    1
    35    36    27    1
    36    11     2    1
    37    25    20    1
    38    34    29   ar
    39    11     6   ar
    40    36    37    1
    41    18    19    1
@<TRIPOS>MOLECULE
*****
 37 41 0 0 0
SMALL
GASTEIGER

@<TRIPOS>ATOM
      1 N          63.9649   90.0461   13.7410 N.3     1  UNL1       -0.2679
      2 C          64.8658   91.2244   13.9641 C.3     1  UNL1        0.0978
      3 C          65.4177   91.4982   15.3317 C.3     1  UNL1        0.0224
      4 C          66.3186   92.6766   15.5549 C.3     1  UNL1        0.0065
      5 C          66.6675   93.5812   14.4104 C.3     1  UNL1        0.0277
      6 C          66.1155   93.3075   13.0428 C.ar    1  UNL1       -0.0073
      7 C          66.4644   94.2122   11.8983 C.ar    1  UNL1       -0.0015
      8 C          65.9124   93.9385   10.5307 C.ar    1  UNL1        0.0203
      9 C          65.0115   92.7601   10.3076 C.ar    1  UNL1        0.0985
     10 N          64.6627   91.8554   11.4520 N.ar    1  UNL1       -0.2471
     11 C          65.2146   92.1291   12.8197 C.ar    1  UNL1        0.0695
     12 C          64.3669   88.6896   14.2394 C.3     1  UNL1        0.0725
     13 C          63.8282   88.1796   15.5432 C.3     1  UNL1        0.0187
     14 C          62.9461   86.9448   17.0254 C.3     1  UNL1        0.0014
     15 C          63.8077   86.7058   15.8211 C.3     1  UNL1        0.0158
     16 C          64.6693   86.4667   14.6168 C.3     1  UNL1        0.0014
     17 C          63.7872   85.2319   16.0990 C.3     1  UNL1        0.0685
     18 N          64.5148   84.2870   15.1892 N.3     1  UNL1       -0.2984
     19 H          65.1917   83.7863   15.7650 H       1  UNL1        0.1232
     20 C          63.7516   83.2508   14.4184 C.3     1  UNL1        0.0590
     21 C          62.4397   82.7436   14.9396 C.3     1  UNL1        0.0478
     22 C          61.6765   81.7075   14.1689 C.3     1  UNL1        0.1435
     23 O          62.2251   81.1787   12.8769 O.3     1  UNL1       -0.3537
     24 C          63.5371   81.6859   12.3556 C.3     1  UNL1        0.1435
     25 C          64.3002   82.7220   13.1264 C.3     1  UNL1        0.0478
     26 C          62.6620   90.2241   13.0194 C.3     1  UNL1        0.0886
     27 C          62.2338   89.2240   11.9866 C.3     1  UNL1        0.0748
     28 C          61.3337   89.6448   10.8630 C.3     1  UNL1        0.0432
     29 C          60.9055   88.6448    9.8302 C.ar    1  UNL1       -0.0234
     30 C          60.0054   89.0656    8.7065 C.ar    1  UNL1       -0.0045
     31 C          59.5773   88.0656    7.6738 C.ar    1  UNL1       -0.0003
     32 C          60.0493   86.6447    7.7647 C.ar    1  UNL1       -0.0003
     33 C          60.9494   86.2238    8.8883 C.ar    1  UNL1       -0.0032
     34 C          61.3775   87.2239    9.9211 C.ar    1  UNL1       -0.0103
     35 C          62.2777   86.8031   11.0448 C.3     1  UNL1        0.0953
     36 N          62.7058   87.8031   12.0775 N.3     1  UNL1       -0.2934
     37 H          63.7253   87.8296   12.0569 H       1  UNL1        0.1236
@<TRIPOS>BOND
     1    14    15    1
     2    15    16    1
     3    15    13    1
     4    13    12    1
     5    12     1    1
     6     1    26    1
     7    27    26    1
     8    27    28    1
     9    28    29    1
    10    29    30   ar
    11    30    31   ar
    12    31    32   ar
    13    32    33   ar
    14    33    34   ar
    15    34    35    1
    16    35    36    1
    17     2     1    1
    18     2     3    1
    19     3     4    1
    20     4     5    1
    21     5     6    1
    22     6     7   ar
    23     7     8   ar
    24     8     9   ar
    25     9    10   ar
    26    10    11   ar
    27    15    17    1
    28    17    18    1
    29    18    20    1
    30    20    21    1
    31    21    22    1
    32    22    23    1
    33    23    24    1
    34    24    25    1
    35    36    27    1
    36    11     2    1
    37    25    20    1
    38    34    29   ar
    39    11     6   ar
    40    36    37    1
    41    18    19    1
@<TRIPOS>MOLECULE
*****
 37 41 0 0 0
SMALL
GASTEIGER

@<TRIPOS>ATOM
      1 N          63.4324   88.8431   13.6759 N.3     1  UNL1       -0.2679
      2 C          62.9877   89.1808   12.2837 C.3     1  UNL1        0.0978
      3 C          63.1296   90.5830   11.7704 C.3     1  UNL1        0.0224
      4 C          62.6849   90.9207   10.3782 C.3     1  UNL1        0.0065
      5 C          62.0983   89.8562    9.4993 C.3     1  UNL1        0.0277
      6 C          61.9564   88.4539   10.0126 C.ar    1  UNL1       -0.0073
      7 C          61.3698   87.3892    9.1337 C.ar    1  UNL1       -0.0015
      8 C          61.2279   85.9870    9.6469 C.ar    1  UNL1        0.0203
      9 C          61.6726   85.6493   11.0391 C.ar    1  UNL1        0.0985
     10 N          62.2592   86.7139   11.9180 N.ar    1  UNL1       -0.2471
     11 C          62.4011   88.1162   11.4048 C.ar    1  UNL1        0.0695
     12 C          64.0634   87.5122   13.9596 C.3     1  UNL1        0.0725
     13 C          63.9691   86.9148   15.3323 C.3     1  UNL1        0.0187
     14 C          65.0675   85.3024   14.4993 C.3     1  UNL1        0.0014
     15 C          63.9591   85.4245   15.5025 C.3     1  UNL1        0.0158
     16 C          62.8507   85.5466   16.5058 C.3     1  UNL1        0.0014
     17 C          63.9491   83.9343   15.6728 C.3     1  UNL1        0.0685
     18 N          62.7311   83.1444   15.2951 N.3     1  UNL1       -0.2984
     19 H          61.9728   83.8148   15.1692 H       1  UNL1        0.1232
     20 C          62.7496   82.2767   14.0716 C.3     1  UNL1        0.0590
     21 C          63.1274   82.8615   12.7430 C.3     1  UNL1        0.0478
     22 C          63.1459   81.9938   11.5196 C.3     1  UNL1        0.1435
     23 O          62.7866   80.5413   11.6248 O.3     1  UNL1       -0.3537
     24 C          62.4088   79.9565   12.9535 C.3     1  UNL1        0.1435
     25 C          62.3903   80.8242   14.1769 C.3     1  UNL1        0.0478
     26 C          63.2462   89.8363   14.7844 C.3     1  UNL1        0.0886
     27 C          64.3694   90.7548   15.1650 C.3     1  UNL1        0.0748
     28 C          65.6474   90.7422   14.3799 C.3     1  UNL1        0.0432
     29 C          66.7706   91.6608   14.7606 C.ar    1  UNL1       -0.0234
     30 C          68.0486   91.6482   13.9755 C.ar    1  UNL1       -0.0045
     31 C          69.1717   92.5667   14.3562 C.ar    1  UNL1       -0.0003
     32 C          69.0168   93.4978   15.5220 C.ar    1  UNL1       -0.0003
     33 C          67.7387   93.5104   16.3071 C.ar    1  UNL1       -0.0032
     34 C          66.6156   92.5919   15.9264 C.ar    1  UNL1       -0.0103
     35 C          65.3375   92.6044   16.7115 C.3     1  UNL1        0.0953
     36 N          64.2144   91.6859   16.3308 N.3     1  UNL1       -0.2934
     37 H          63.4065   92.2757   16.1313 H       1  UNL1        0.1236
@<TRIPOS>BOND
     1    14    15    1
     2    15    16    1
     3    15    13    1
     4    13    12    1
     5    12     1    1
     6     1    26    1
     7    27    26    1
     8    27    28    1
     9    28    29    1
    10    29    30   ar
    11    30    31   ar
    12    31    32   ar
    13    32    33   ar
    14    33    34   ar
    15    34    35    1
    16    35    36    1
    17     2     1    1
    18     2     3    1
    19     3     4    1
    20     4     5    1
    21     5     6    1
    22     6     7   ar
    23     7     8   ar
    24     8     9   ar
    25     9    10   ar
    26    10    11   ar
    27    15    17    1
    28    17    18    1
    29    18    20    1
    30    20    21    1
    31    21    22    1
    32    22    23    1
    33    23    24    1
    34    24    25    1
    35    36    27    1
    36    11     2    1
    37    25    20    1
    38    34    29   ar
    39    11     6   ar
    40    36    37    1
    41    18    19    1
@<TRIPOS>MOLECULE
*****
 37 41 0 0 0
SMALL
GASTEIGER

@<TRIPOS>ATOM
      1 N          65.2564   92.3585   12.1373 N.3     1  UNL1       -0.2679
      2 C          66.3456   92.7111   11.1681 C.3     1  UNL1        0.0978
      3 C          67.4336   91.7224   10.8704 C.3     1  UNL1        0.0224
      4 C          68.5228   92.0750    9.9012 C.3     1  UNL1        0.0065
      5 C          68.5240   93.4163    9.2298 C.3     1  UNL1        0.0277
      6 C          67.4360   94.4050    9.5276 C.ar    1  UNL1       -0.0073
      7 C          67.4372   95.7464    8.8562 C.ar    1  UNL1       -0.0015
      8 C          66.3492   96.7351    9.1540 C.ar    1  UNL1        0.0203
      9 C          65.2600   96.3825   10.1231 C.ar    1  UNL1        0.0985
     10 N          65.2588   95.0412   10.7945 N.ar    1  UNL1       -0.2471
     11 C          66.3468   94.0524   10.4968 C.ar    1  UNL1        0.0695
     12 C          63.8775   92.0475   11.6353 C.3     1  UNL1        0.0725
     13 C          63.5470   90.6640   11.1591 C.3     1  UNL1        0.0187
     14 C          62.1598   90.6510    9.5543 C.3     1  UNL1        0.0014
     15 C          62.1148   90.2482   10.9985 C.3     1  UNL1        0.0158
     16 C          62.0698   89.8454   12.4427 C.3     1  UNL1        0.0014
     17 C          60.6825   89.8325   10.8380 C.3     1  UNL1        0.0685
     18 N          60.3054   88.3846   10.9445 N.3     1  UNL1       -0.2984
     19 H          59.2914   88.3514   11.0497 H       1  UNL1        0.1232
     20 C          60.6574   87.4345    9.8384 C.3     1  UNL1        0.0590
     21 C          59.6528   87.1235    8.7688 C.3     1  UNL1        0.0478
     22 C          60.0048   86.1734    7.6626 C.3     1  UNL1        0.1435
     23 O          61.3614   85.5343    7.6261 O.3     1  UNL1       -0.3537
     24 C          62.3660   85.8454    8.6958 C.3     1  UNL1        0.1435
     25 C          62.0140   86.7954    9.8019 C.3     1  UNL1        0.0478
     26 C          65.5460   92.3168   13.6084 C.3     1  UNL1        0.0886
     27 C          64.8878   91.2830   14.4735 C.3     1  UNL1        0.0748
     28 C          65.0470   89.8261   14.1541 C.3     1  UNL1        0.0432
     29 C          64.3888   88.7924   15.0191 C.ar    1  UNL1       -0.0234
     30 C          64.5479   87.3355   14.6997 C.ar    1  UNL1       -0.0045
     31 C          63.8898   86.3018   15.5647 C.ar    1  UNL1       -0.0003
     32 C          63.0725   86.7250   16.7491 C.ar    1  UNL1       -0.0003
     33 C          62.9133   88.1819   17.0686 C.ar    1  UNL1       -0.0032
     34 C          63.5715   89.2156   16.2035 C.ar    1  UNL1       -0.0103
     35 C          63.4124   90.6726   16.5229 C.3     1  UNL1        0.0953
     36 N          64.0705   91.7063   15.6579 N.3     1  UNL1       -0.2934
     37 H          64.6878   92.2472   16.2635 H       1  UNL1        0.1236
@<TRIPOS>BOND
     1    14    15    1
     2    15    16    1
     3    15    13    1
     4    13    12    1
     5    12     1    1
     6     1    26    1
     7    27    26    1
     8    27    28    1
     9    28    29    1
    10    29    30   ar
    11    30    31   ar
    12    31    32   ar
    13    32    33   ar
    14    33    34   ar
    15    34    35    1
    16    35    36    1
    17     2     1    1
    18     2     3    1
    19     3     4    1
    20     4     5    1
    21     5     6    1
    22     6     7   ar
    23     7     8   ar
    24     8     9   ar
    25     9    10   ar
    26    10    11   ar
    27    15    17    1
    28    17    18    1
    29    18    20    1
    30    20    21    1
    31    21    22    1
    32    22    23    1
    33    23    24    1
    34    24    25    1
    35    36    27    1
    36    11     2    1
    37    25    20    1
    38    34    29   ar
    39    11     6   ar
    40    36    37    1
    41    18    19    1
@<TRIPOS>MOLECULE
*****
 37 41 0 0 0
SMALL
GASTEIGER

@<TRIPOS>ATOM
      1 N          63.7911   90.1042   13.7874 N.3     1  UNL1       -0.2679
      2 C          64.7781   91.2163   13.9852 C.3     1  UNL1        0.0978
      3 C          65.3638   91.4665   15.3432 C.3     1  UNL1        0.0224
      4 C          66.3508   92.5786   15.5410 C.3     1  UNL1        0.0065
      5 C          66.7521   93.4404   14.3808 C.3     1  UNL1        0.0277
      6 C          66.1663   93.1902   13.0228 C.ar    1  UNL1       -0.0073
      7 C          66.5676   94.0521   11.8625 C.ar    1  UNL1       -0.0015
      8 C          65.9818   93.8018   10.5044 C.ar    1  UNL1        0.0203
      9 C          64.9948   92.6898   10.3067 C.ar    1  UNL1        0.0985
     10 N          64.5936   91.8279   11.4669 N.ar    1  UNL1       -0.2471
     11 C          65.1793   92.0781   12.8250 C.ar    1  UNL1        0.0695
     12 C          64.2052   88.6825   14.0266 C.3     1  UNL1        0.0725
     13 C          63.9578   88.0436   15.3611 C.3     1  UNL1        0.0187
     14 C          63.1529   86.6987   16.7905 C.3     1  UNL1        0.0014
     15 C          63.8482   86.5516   15.4695 C.3     1  UNL1        0.0158
     16 C          64.5435   86.4045   14.1486 C.3     1  UNL1        0.0014
     17 C          63.7386   85.0596   15.5780 C.3     1  UNL1        0.0685
     18 N          62.5008   84.3616   15.0976 N.3     1  UNL1       -0.2984
     19 H          61.9437   85.0577   14.6022 H       1  UNL1        0.1232
     20 C          62.6146   83.1725   14.1903 C.3     1  UNL1        0.0590
     21 C          63.5341   83.2179   13.0061 C.3     1  UNL1        0.0478
     22 C          63.6478   82.0288   12.0988 C.3     1  UNL1        0.1435
     23 O          62.8421   80.7942   12.3758 O.3     1  UNL1       -0.3537
     24 C          61.9227   80.7488   13.5601 C.3     1  UNL1        0.1435
     25 C          61.8089   81.9379   14.4674 C.3     1  UNL1        0.0478
     26 C          62.3900   90.4138   13.3504 C.3     1  UNL1        0.0886
     27 C          61.8235   89.7565   12.1268 C.3     1  UNL1        0.0748
     28 C          62.4300   88.4861   11.6089 C.3     1  UNL1        0.0432
     29 C          61.8635   87.8288   10.3853 C.ar    1  UNL1       -0.0234
     30 C          62.4701   86.5585    9.8674 C.ar    1  UNL1       -0.0045
     31 C          61.9035   85.9013    8.6439 C.ar    1  UNL1       -0.0003
     32 C          60.7303   86.5144    7.9383 C.ar    1  UNL1       -0.0003
     33 C          60.1238   87.7847    8.4562 C.ar    1  UNL1       -0.0032
     34 C          60.6903   88.4419    9.6797 C.ar    1  UNL1       -0.0103
     35 C          60.0837   89.7123   10.1977 C.3     1  UNL1        0.0953
     36 N          60.6503   90.3695   11.4212 N.3     1  UNL1       -0.2934
     37 H          59.8933   90.4256   12.1026 H       1  UNL1        0.1236
@<TRIPOS>BOND
     1    14    15    1
     2    15    16    1
     3    15    13    1
     4    13    12    1
     5    12     1    1
     6     1    26    1
     7    27    26    1
     8    27    28    1
     9    28    29    1
    10    29    30   ar
    11    30    31   ar
    12    31    32   ar
    13    32    33   ar
    14    33    34   ar
    15    34    35    1
    16    35    36    1
    17     2     1    1
    18     2     3    1
    19     3     4    1
    20     4     5    1
    21     5     6    1
    22     6     7   ar
    23     7     8   ar
    24     8     9   ar
    25     9    10   ar
    26    10    11   ar
    27    15    17    1
    28    17    18    1
    29    18    20    1
    30    20    21    1
    31    21    22    1
    32    22    23    1
    33    23    24    1
    34    24    25    1
    35    36    27    1
    36    11     2    1
    37    25    20    1
    38    34    29   ar
    39    11     6   ar
    40    36    37    1
    41    18    19    1
@<TRIPOS>MOLECULE
*****
 37 41 0 0 0
SMALL
GASTEIGER

@<TRIPOS>ATOM
      1 N          62.0432   87.9015   10.8403 N.3     1  UNL1       -0.2679
      2 C          62.7342   89.2174   11.0425 C.3     1  UNL1        0.0978
      3 C          62.7317   90.2419    9.9470 C.3     1  UNL1        0.0224
      4 C          63.4227   91.5579   10.1491 C.3     1  UNL1        0.0065
      5 C          64.1162   91.8493   11.4469 C.3     1  UNL1        0.0277
      6 C          64.1187   90.8247   12.5424 C.ar    1  UNL1       -0.0073
      7 C          64.8122   91.1161   13.8402 C.ar    1  UNL1       -0.0015
      8 C          64.8147   90.0916   14.9358 C.ar    1  UNL1        0.0203
      9 C          64.1237   88.7757   14.7336 C.ar    1  UNL1        0.0985
     10 N          63.4302   88.4843   13.4359 N.ar    1  UNL1       -0.2471
     11 C          63.4277   89.5088   12.3402 C.ar    1  UNL1        0.0695
     12 C          60.5485   87.8172   10.9329 C.3     1  UNL1        0.0725
     13 C          59.7706   87.0975    9.8712 C.3     1  UNL1        0.0187
     14 C          59.6278   86.3711    7.8833 C.3     1  UNL1        0.0014
     15 C          59.5821   87.7271    8.5229 C.3     1  UNL1        0.0158
     16 C          59.5363   89.0831    9.1625 C.3     1  UNL1        0.0014
     17 C          59.3935   88.3567    7.1746 C.3     1  UNL1        0.0685
     18 N          60.1357   89.6118    6.8225 N.3     1  UNL1       -0.2984
     19 H          61.0515   89.3251    6.4766 H       1  UNL1        0.1232
     20 C          59.5672   90.5598    5.8085 C.3     1  UNL1        0.0590
     21 C          60.4818   91.2990    4.8773 C.3     1  UNL1        0.0478
     22 C          59.9133   92.2470    3.8633 C.3     1  UNL1        0.1435
     23 O          58.4303   92.4559    3.7806 O.3     1  UNL1       -0.3537
     24 C          57.5156   91.7167    4.7118 C.3     1  UNL1        0.1435
     25 C          58.0841   90.7687    5.7257 C.3     1  UNL1        0.0478
     26 C          62.8470   86.6698   10.5456 C.3     1  UNL1        0.0886
     27 C          62.7891   85.4957   11.4774 C.3     1  UNL1        0.0748
     28 C          62.8494   84.1003   10.9303 C.3     1  UNL1        0.0432
     29 C          62.7915   82.9262   11.8620 C.ar    1  UNL1       -0.0234
     30 C          62.8518   81.5309   11.3149 C.ar    1  UNL1       -0.0045
     31 C          62.7940   80.3568   12.2467 C.ar    1  UNL1       -0.0003
     32 C          62.6758   80.5781   13.7255 C.ar    1  UNL1       -0.0003
     33 C          62.6154   81.9734   14.2727 C.ar    1  UNL1       -0.0032
     34 C          62.6733   83.1475   13.3409 C.ar    1  UNL1       -0.0103
     35 C          62.6130   84.5429   13.8880 C.3     1  UNL1        0.0953
     36 N          62.6709   85.7169   12.9563 N.3     1  UNL1       -0.2934
     37 H          63.4774   86.2752   13.2358 H       1  UNL1        0.1236
@<TRIPOS>BOND
     1    14    15    1
     2    15    16    1
     3    15    13    1
     4    13    12    1
     5    12     1    1
     6     1    26    1
     7    27    26    1
     8    27    28    1
     9    28    29    1
    10    29    30   ar
    11    30    31   ar
    12    31    32   ar
    13    32    33   ar
    14    33    34   ar
    15    34    35    1
    16    35    36    1
    17     2     1    1
    18     2     3    1
    19     3     4    1
    20     4     5    1
    21     5     6    1
    22     6     7   ar
    23     7     8   ar
    24     8     9   ar
    25     9    10   ar
    26    10    11   ar
    27    15    17    1
    28    17    18    1
    29    18    20    1
    30    20    21    1
    31    21    22    1
    32    22    23    1
    33    23    24    1
    34    24    25    1
    35    36    27    1
    36    11     2    1
    37    25    20    1
    38    34    29   ar
    39    11     6   ar
    40    36    37    1
    41    18    19    1
@<TRIPOS>MOLECULE
*****
 37 41 0 0 0
SMALL
GASTEIGER

@<TRIPOS>ATOM
      1 N          61.8112   87.6937   11.3759 N.3     1  UNL1       -0.2679
      2 C          62.3559   86.4636   10.7126 C.3     1  UNL1        0.0978
      3 C          62.6135   86.4599    9.2349 C.3     1  UNL1        0.0224
      4 C          63.1582   85.2298    8.5715 C.3     1  UNL1        0.0065
      5 C          63.4453   84.0033    9.3859 C.3     1  UNL1        0.0277
      6 C          63.1877   84.0069   10.8636 C.ar    1  UNL1       -0.0073
      7 C          63.4748   82.7803   11.6780 C.ar    1  UNL1       -0.0015
      8 C          63.2172   82.7840   13.1557 C.ar    1  UNL1        0.0203
      9 C          62.6725   84.0141   13.8190 C.ar    1  UNL1        0.0985
     10 N          62.3854   85.2406   13.0047 N.ar    1  UNL1       -0.2471
     11 C          62.6430   85.2371   11.5269 C.ar    1  UNL1        0.0695
     12 C          60.4483   88.2021   11.0099 C.3     1  UNL1        0.0725
     13 C          59.6322   87.4833    9.9767 C.3     1  UNL1        0.0187
     14 C          58.9886   86.7077    8.1102 C.3     1  UNL1        0.0014
     15 C          59.5594   88.0144    8.5758 C.3     1  UNL1        0.0158
     16 C          60.1301   89.3210    9.0415 C.3     1  UNL1        0.0014
     17 C          59.4866   88.5454    7.1749 C.3     1  UNL1        0.0685
     18 N          60.1113   89.8675    6.8406 N.3     1  UNL1       -0.2984
     19 H          61.0743   89.6766    6.5639 H       1  UNL1        0.1232
     20 C          59.5149   90.7287    5.7668 C.3     1  UNL1        0.0590
     21 C          60.4082   91.4533    4.8041 C.3     1  UNL1        0.0478
     22 C          59.8119   92.3145    3.7303 C.3     1  UNL1        0.1435
     23 O          58.3222   92.4510    3.6194 O.3     1  UNL1       -0.3537
     24 C          57.4289   91.7264    4.5823 C.3     1  UNL1        0.1435
     25 C          58.0253   90.8652    5.6559 C.3     1  UNL1        0.0478
     26 C          62.6294   88.4154   12.4053 C.3     1  UNL1        0.0886
     27 C          63.3228   89.6969   12.0486 C.3     1  UNL1        0.0748
     28 C          64.2039   90.3778   13.0536 C.3     1  UNL1        0.0432
     29 C          64.8973   91.6592   12.6970 C.ar    1  UNL1       -0.0234
     30 C          65.7784   92.3401   13.7020 C.ar    1  UNL1       -0.0045
     31 C          66.4718   93.6214   13.3453 C.ar    1  UNL1       -0.0003
     32 C          66.2841   94.2219   11.9836 C.ar    1  UNL1       -0.0003
     33 C          65.4030   93.5410   10.9786 C.ar    1  UNL1       -0.0032
     34 C          64.7096   92.2597   11.3353 C.ar    1  UNL1       -0.0103
     35 C          63.8285   91.5787   10.3303 C.3     1  UNL1        0.0953
     36 N          63.1351   90.2974   10.6869 N.3     1  UNL1       -0.2934
     37 H          63.4434   89.5979   10.0116 H       1  UNL1        0.1236
@<TRIPOS>BOND
     1    14    15    1
     2    15    16    1
     3    15    13    1
     4    13    12    1
     5    12     1    1
     6     1    26    1
     7    27    26    1
     8    27    28    1
     9    28    29    1
    10    29    30   ar
    11    30    31   ar
    12    31    32   ar
    13    32    33   ar
    14    33    34   ar
    15    34    35    1
    16    35    36    1
    17     2     1    1
    18     2     3    1
    19     3     4    1
    20     4     5    1
    21     5     6    1
    22     6     7   ar
    23     7     8   ar
    24     8     9   ar
    25     9    10   ar
    26    10    11   ar
    27    15    17    1
    28    17    18    1
    29    18    20    1
    30    20    21    1
    31    21    22    1
    32    22    23    1
    33    23    24    1
    34    24    25    1
    35    36    27    1
    36    11     2    1
    37    25    20    1
    38    34    29   ar
    39    11     6   ar
    40    36    37    1
    41    18    19    1
@<TRIPOS>MOLECULE
*****
 37 41 0 0 0
SMALL
GASTEIGER

@<TRIPOS>ATOM
      1 N          63.3999   88.1918   13.1657 N.3     1  UNL1       -0.2679
      2 C          62.7379   87.4228   12.0611 C.3     1  UNL1        0.0978
      3 C          62.9606   85.9445   11.9384 C.3     1  UNL1        0.0224
      4 C          62.2985   85.1755   10.8337 C.3     1  UNL1        0.0065
      5 C          61.4139   85.8847    9.8518 C.3     1  UNL1        0.0277
      6 C          61.1912   87.3629    9.9744 C.ar    1  UNL1       -0.0073
      7 C          60.3065   88.0722    8.9924 C.ar    1  UNL1       -0.0015
      8 C          60.0839   89.5505    9.1151 C.ar    1  UNL1        0.0203
      9 C          60.7459   90.3196   10.2198 C.ar    1  UNL1        0.0985
     10 N          61.6306   89.6103   11.2018 N.ar    1  UNL1       -0.2471
     11 C          61.8532   88.1320   11.0791 C.ar    1  UNL1        0.0695
     12 C          64.3056   87.4873   14.1319 C.3     1  UNL1        0.0725
     13 C          63.7250   86.7418   15.2969 C.3     1  UNL1        0.0187
     14 C          65.2695   85.4196   14.6919 C.3     1  UNL1        0.0014
     15 C          63.9847   85.2726   15.4518 C.3     1  UNL1        0.0158
     16 C          62.6998   85.1256   16.2116 C.3     1  UNL1        0.0014
     17 C          64.2444   83.8034   15.6067 C.3     1  UNL1        0.0685
     18 N          63.1389   82.8174   15.3706 N.3     1  UNL1       -0.2984
     19 H          62.2625   83.3333   15.4490 H       1  UNL1        0.1232
     20 C          63.0780   82.0535   14.0811 C.3     1  UNL1        0.0590
     21 C          62.3508   80.7430   14.0193 C.3     1  UNL1        0.0478
     22 C          62.2899   79.9791   12.7298 C.3     1  UNL1        0.1435
     23 O          62.9561   80.5258   11.5021 O.3     1  UNL1       -0.3537
     24 C          63.6832   81.8364   11.5639 C.3     1  UNL1        0.1435
     25 C          63.7442   82.6002   12.8534 C.3     1  UNL1        0.0478
     26 C          63.1564   89.6654   13.3042 C.3     1  UNL1        0.0886
     27 C          64.1257   90.5172   14.0690 C.3     1  UNL1        0.0748
     28 C          65.5020   90.7606   13.5245 C.3     1  UNL1        0.0432
     29 C          66.4714   91.6124   14.2893 C.ar    1  UNL1       -0.0234
     30 C          67.8477   91.8558   13.7448 C.ar    1  UNL1       -0.0045
     31 C          68.8170   92.7076   14.5096 C.ar    1  UNL1       -0.0003
     32 C          68.4099   93.3160   15.8188 C.ar    1  UNL1       -0.0003
     33 C          67.0336   93.0726   16.3633 C.ar    1  UNL1       -0.0032
     34 C          66.0644   92.2208   15.5985 C.ar    1  UNL1       -0.0103
     35 C          64.6880   91.9774   16.1430 C.3     1  UNL1        0.0953
     36 N          63.7187   91.1256   15.3783 N.3     1  UNL1       -0.2934
     37 H          62.9006   91.7055   15.1918 H       1  UNL1        0.1236
@<TRIPOS>BOND
     1    14    15    1
     2    15    16    1
     3    15    13    1
     4    13    12    1
     5    12     1    1
     6     1    26    1
     7    27    26    1
     8    27    28    1
     9    28    29    1
    10    29    30   ar
    11    30    31   ar
    12    31    32   ar
    13    32    33   ar
    14    33    34   ar
    15    34    35    1
    16    35    36    1
    17     2     1    1
    18     2     3    1
    19     3     4    1
    20     4     5    1
    21     5     6    1
    22     6     7   ar
    23     7     8   ar
    24     8     9   ar
    25     9    10   ar
    26    10    11   ar
    27    15    17    1
    28    17    18    1
    29    18    20    1
    30    20    21    1
    31    21    22    1
    32    22    23    1
    33    23    24    1
    34    24    25    1
    35    36    27    1
    36    11     2    1
    37    25    20    1
    38    34    29   ar
    39    11     6   ar
    40    36    37    1
    41    18    19    1
@<TRIPOS>MOLECULE
*****
 37 41 0 0 0
SMALL
GASTEIGER

@<TRIPOS>ATOM
      1 N          62.2087   87.4849   11.0991 N.3     1  UNL1       -0.2679
      2 C          61.2047   87.2279   10.0147 C.3     1  UNL1        0.0978
      3 C          59.8503   87.8691   10.0793 C.3     1  UNL1        0.0224
      4 C          58.8463   87.6120    8.9949 C.3     1  UNL1        0.0065
      5 C          59.1967   86.7137    7.8460 C.3     1  UNL1        0.0277
      6 C          60.5512   86.0725    7.7814 C.ar    1  UNL1       -0.0073
      7 C          60.9017   85.1742    6.6323 C.ar    1  UNL1       -0.0015
      8 C          62.2562   84.5330    6.5677 C.ar    1  UNL1        0.0203
      9 C          63.2602   84.7900    7.6521 C.ar    1  UNL1        0.0985
     10 N          62.9097   85.6883    8.8011 N.ar    1  UNL1       -0.2471
     11 C          61.5552   86.3296    8.8657 C.ar    1  UNL1        0.0695
     12 C          62.1419   88.7528   11.8979 C.3     1  UNL1        0.0725
     13 C          63.3310   89.2004   12.6953 C.3     1  UNL1        0.0187
     14 C          63.1704   90.6837   11.1874 C.3     1  UNL1        0.0014
     15 C          63.8896   90.5786   12.4995 C.3     1  UNL1        0.0158
     16 C          64.6088   90.4736   13.8116 C.3     1  UNL1        0.0014
     17 C          64.4482   91.9569   12.3036 C.3     1  UNL1        0.0685
     18 N          65.9308   92.1793   12.3536 N.3     1  UNL1       -0.2984
     19 H          66.3673   91.2575   12.3458 H       1  UNL1        0.1232
     20 C          66.6045   92.9866   11.2837 C.3     1  UNL1        0.0590
     21 C          67.5782   92.3304   10.3502 C.3     1  UNL1        0.0478
     22 C          68.2519   93.1377    9.2804 C.3     1  UNL1        0.1435
     23 O          67.9519   94.6010    9.1440 O.3     1  UNL1       -0.3537
     24 C          66.9781   95.2571   10.0775 C.3     1  UNL1        0.1435
     25 C          66.3045   94.4499   11.1473 C.3     1  UNL1        0.0478
     26 C          63.2795   86.4741   11.3847 C.3     1  UNL1        0.0886
     27 C          62.9472   85.2233   12.1431 C.3     1  UNL1        0.0748
     28 C          63.0880   83.8849   11.4807 C.3     1  UNL1        0.0432
     29 C          62.7556   82.6340   12.2390 C.ar    1  UNL1       -0.0234
     30 C          62.8964   81.2956   11.5766 C.ar    1  UNL1       -0.0045
     31 C          62.5640   80.0449   12.3350 C.ar    1  UNL1       -0.0003
     32 C          62.0909   80.1326   13.7557 C.ar    1  UNL1       -0.0003
     33 C          61.9501   81.4710   14.4181 C.ar    1  UNL1       -0.0032
     34 C          62.2825   82.7217   13.6598 C.ar    1  UNL1       -0.0103
     35 C          62.1417   84.0602   14.3221 C.3     1  UNL1        0.0953
     36 N          62.4741   85.3110   13.5638 N.3     1  UNL1       -0.2934
     37 H          63.2067   85.7880   14.0892 H       1  UNL1        0.1236
@<TRIPOS>BOND
     1    14    15    1
     2    15    16    1
     3    15    13    1
     4    13    12    1
     5    12     1    1
     6     1    26    1
     7    27    26    1
     8    27    28    1
     9    28    29    1
    10    29    30   ar
    11    30    31   ar
    12    31    32   ar
    13    32    33   ar
    14    33    34   ar
    15    34    35    1
    16    35    36    1
    17     2     1    1
    18     2     3    1
    19     3     4    1
    20     4     5    1
    21     5     6    1
    22     6     7   ar
    23     7     8   ar
    24     8     9   ar
    25     9    10   ar
    26    10    11   ar
    27    15    17    1
    28    17    18    1
    29    18    20    1
    30    20    21    1
    31    21    22    1
    32    22    23    1
    33    23    24    1
    34    24    25    1
    35    36    27    1
    36    11     2    1
    37    25    20    1
    38    34    29   ar
    39    11     6   ar
    40    36    37    1
    41    18    19    1
