@<TRIPOS>MOLECULE
*****
 55 59 0 0 0
SMALL
GASTEIGER

@<TRIPOS>ATOM
      1 N          64.2597   85.3467   14.5107 N.am    1  UNL1       -0.2770
      2 C          64.6385   84.3052   13.4999 C.2     1  UNL1        0.2270
      3 O          65.8116   84.5318   12.5930 O.2     1  UNL1       -0.2748
      4 C          63.8442   83.0370   13.3960 C.3     1  UNL1        0.0964
      5 C          64.1362   81.8914   14.3192 C.3     1  UNL1        0.0780
      6 N          63.3419   80.6232   14.2153 N.3     1  UNL1       -0.2970
      7 C          62.2556   80.5007   13.1882 C.3     1  UNL1        0.0689
      8 C          61.9636   81.6463   12.2650 C.3     1  UNL1        0.0220
      9 C          62.7579   82.9144   12.3689 C.3     1  UNL1        0.0337
     10 H          62.9052   80.4739   15.1249 H       1  UNL1        0.1233
     11 C          62.4659   84.0600   11.4457 C.ar    1  UNL1       -0.0217
     12 C          63.0797   84.0959   10.0775 C.ar    1  UNL1       -0.0012
     13 C          62.7877   85.2415    9.1543 C.ar    1  UNL1        0.0366
     14 C          61.8819   86.3513    9.5993 C.ar    1  UNL1        0.1387
     15 C          61.2682   86.3154   10.9675 C.ar    1  UNL1        0.0366
     16 C          61.5602   85.1698   11.8907 C.ar    1  UNL1       -0.0012
     17 O          61.5900   87.4969    8.6761 O.3     1  UNL1       -0.4714
     18 C          60.1943   88.0358    8.5676 C.3     1  UNL1        0.2525
     19 C          59.6012   88.3159    7.2187 C.3     1  UNL1        0.2525
     20 O          58.7014   89.5005    7.0263 O.3     1  UNL1       -0.4697
     21 C          58.9441   90.4502    5.8909 C.ar    1  UNL1        0.1596
     22 C          57.7864   90.9936    5.1070 C.ar    1  UNL1        0.0921
     23 CL         56.3860   90.5874    5.4587 Cl      1  UNL1       -0.0791
     24 C          58.0291   91.9433    3.9716 C.ar    1  UNL1        0.0103
     25 C          59.4296   92.3495    3.6200 C.ar    1  UNL1       -0.0200
     26 C          59.6723   93.2992    2.4845 C.3     1  UNL1        0.0311
     27 C          60.5874   91.8061    4.4038 C.ar    1  UNL1        0.0103
     28 C          60.3446   90.8564    5.5392 C.ar    1  UNL1        0.0921
     29 CL         61.5023   90.3130    6.3230 Cl      1  UNL1       -0.0791
     30 C          63.0866   85.1200   15.4176 C.3     1  UNL1        0.0758
     31 C          62.3939   85.3507   16.7279 C.3     1  UNL1        0.0215
     32 C          61.7473   84.4966   15.6781 C.3     1  UNL1        0.0215
     33 C          65.0540   86.6148   14.6147 C.3     1  UNL1        0.1201
     34 C          63.9769   90.4337   14.6963 C.ar    1  UNL1        0.1380
     35 C          63.1990   90.5362   13.4180 C.ar    1  UNL1        0.0326
     36 C          63.0394   89.3316   12.5385 C.ar    1  UNL1       -0.0194
     37 C          63.6577   88.0245   12.9374 C.ar    1  UNL1       -0.0067
     38 C          64.4356   87.9220   14.2157 C.ar    1  UNL1        0.0004
     39 C          64.5952   89.1266   15.0952 C.ar    1  UNL1        0.0343
     40 C          62.2614   89.4341   11.2600 C.3     1  UNL1        0.0290
     41 C          61.2032   90.4863   11.1084 C.3     1  UNL1        0.0367
     42 C          59.7817   90.1787   11.4754 C.3     1  UNL1        0.1426
     43 O          59.4572   88.9261   12.2342 O.3     1  UNL1       -0.3511
     44 C          58.2632   88.8869   13.1414 C.3     1  UNL1        0.1741
     45 O          64.1365   91.6383   15.5758 O.3     1  UNL1       -0.4755
     46 C          65.4998   92.2154   15.8171 C.3     1  UNL1        0.2058
     47 C          66.1342   93.0982   14.7835 C.3     1  UNL1        0.0525
     48 C          67.3054   92.6009   13.9890 C.3     1  UNL1        0.0356
     49 C          68.4764   92.1036   13.1946 C.2     1  UNL1        0.0498
     50 O          68.2783   91.6227   11.7876 O.co2   1  UNL1       -0.5492
     51 O          69.8456   92.0871   13.8070 O.co2   1  UNL1       -0.5492
     52 C          66.4975   92.7101   12.7299 C.3     1  UNL1        0.0053
     53 C          66.1458   94.0604   12.1792 C.3     1  UNL1        0.0004
     54 C          68.4607   93.7264   16.0258 C.3     1  UNL1        0.0004
     55 C          68.1132   92.4917   15.2482 C.3     1  UNL1        0.0053
@<TRIPOS>UNITY_ATOM_ATTR
50 1
charge -1
@<TRIPOS>BOND
     1    54    55    1
     2    55    48    1
     3    48    52    1
     4    52    53    1
     5    48    47    1
     6    47    46    1
     7    46    45    1
     8    45    34    1
     9    34    35   ar
    10    35    36   ar
    11    36    40    1
    12    40    41    1
    13    41    42    1
    14    42    43    1
    15    43    44    1
    16    36    37   ar
    17    37    38   ar
    18    38    33    1
    19    33     1    1
    20     1     2   am
    21     2     3    2
    22     4     2    1
    23     4     5    1
    24     5     6    1
    25     6     7    1
    26     7     8    1
    27     8     9    1
    28     9    11    1
    29    11    12   ar
    30    12    13   ar
    31    13    14   ar
    32    14    17    1
    33    17    18    1
    34    18    19    1
    35    19    20    1
    36    20    21    1
    37    21    22   ar
    38    22    23    1
    39    22    24   ar
    40    24    25   ar
    41    25    26    1
    42    25    27   ar
    43    27    28   ar
    44    28    29    1
    45    14    15   ar
    46    15    16   ar
    47     1    30    1
    48    30    31    1
    49    31    32    1
    50    38    39   ar
    51    48    49    1
    52    49    50   ar
    53    49    51   ar
    54    39    34   ar
    55     9     4    1
    56    16    11   ar
    57    32    30    1
    58    28    21   ar
    59     6    10    1
@<TRIPOS>MOLECULE
*****
 55 59 0 0 0
SMALL
GASTEIGER

@<TRIPOS>ATOM
      1 N          61.5780   85.6863   10.4464 N.am    1  UNL1       -0.2770
      2 C          61.8869   85.0158   11.7521 C.2     1  UNL1        0.2270
      3 O          61.1623   85.4308   12.9982 O.2     1  UNL1       -0.2748
      4 C          62.9206   83.9303   11.8118 C.3     1  UNL1        0.0964
      5 C          63.0804   82.9828   10.6601 C.3     1  UNL1        0.0780
      6 N          64.1139   81.8973   10.7197 N.3     1  UNL1       -0.2970
      7 C          64.9877   81.7595   11.9311 C.3     1  UNL1        0.0689
      8 C          64.8278   82.7071   13.0829 C.3     1  UNL1        0.0220
      9 C          63.7943   83.7925   13.0232 C.3     1  UNL1        0.0337
     10 H          64.7352   82.0382    9.9231 H       1  UNL1        0.1233
     11 C          63.6345   84.7401   14.1750 C.ar    1  UNL1       -0.0217
     12 C          64.3869   86.0376   14.1887 C.ar    1  UNL1       -0.0012
     13 C          64.2271   86.9852   15.3404 C.ar    1  UNL1        0.0366
     14 C          63.3148   86.6353   16.4785 C.ar    1  UNL1        0.1387
     15 C          62.5624   85.3378   16.4648 C.ar    1  UNL1        0.0366
     16 C          62.7222   84.3902   15.3131 C.ar    1  UNL1       -0.0012
     17 O          63.1550   87.5829   17.6303 O.3     1  UNL1       -0.4714
     18 C          63.1207   89.0623   17.3851 C.3     1  UNL1        0.2525
     19 C          62.9144   89.5876   15.9954 C.3     1  UNL1        0.2525
     20 O          63.2351   91.0185   15.6792 O.3     1  UNL1       -0.4697
     21 C          64.6575   91.4351   15.4491 C.ar    1  UNL1        0.1596
     22 C          65.4021   90.9303   14.2488 C.ar    1  UNL1        0.0921
     23 CL         64.7242   90.0088   13.2786 Cl      1  UNL1       -0.0791
     24 C          66.8246   91.3469   14.0187 C.ar    1  UNL1        0.0103
     25 C          67.5025   92.2684   14.9889 C.ar    1  UNL1       -0.0200
     26 C          68.9250   92.6850   14.7588 C.3     1  UNL1        0.0311
     27 C          66.7579   92.7733   16.1892 C.ar    1  UNL1        0.0103
     28 C          65.3355   92.3567   16.4193 C.ar    1  UNL1        0.0921
     29 CL         64.5909   92.8615   17.6196 Cl      1  UNL1       -0.0791
     30 C          62.3027   85.2713    9.2003 C.3     1  UNL1        0.0758
     31 C          63.5766   84.8986    8.5015 C.3     1  UNL1        0.0215
     32 C          62.2841   84.9251    7.7409 C.3     1  UNL1        0.0215
     33 C          60.5445   86.7717   10.3866 C.3     1  UNL1        0.1201
     34 C          62.2222   90.3551   10.0798 C.ar    1  UNL1        0.1380
     35 C          61.6363   90.8324    8.7841 C.ar    1  UNL1        0.0326
     36 C          60.6864   89.9562    8.0226 C.ar    1  UNL1       -0.0194
     37 C          60.3224   88.6026    8.5567 C.ar    1  UNL1       -0.0067
     38 C          60.9084   88.1253    9.8524 C.ar    1  UNL1        0.0004
     39 C          61.8583   89.0016   10.6139 C.ar    1  UNL1        0.0343
     40 C          60.1004   90.4336    6.7269 C.3     1  UNL1        0.0290
     41 C          58.7320   89.9815    6.3109 C.3     1  UNL1        0.0367
     42 C          57.9028   90.8394    5.4019 C.3     1  UNL1        0.1426
     43 O          58.3892   92.2022    5.0068 O.3     1  UNL1       -0.3511
     44 C          59.3435   92.3545    3.8596 C.3     1  UNL1        0.1741
     45 O          63.1721   91.2314   10.8413 O.3     1  UNL1       -0.4755
     46 C          64.1676   92.0770   10.1038 C.3     1  UNL1        0.2058
     47 C          65.3238   92.6875   10.8391 C.3     1  UNL1        0.0525
     48 C          66.3406   93.5011   10.0946 C.3     1  UNL1        0.0356
     49 C          67.3573   94.3148    9.3502 C.2     1  UNL1        0.0498
     50 O          68.8126   94.1920    9.6925 O.co2   1  UNL1       -0.5492
     51 O          66.9188   95.2512    8.2635 O.co2   1  UNL1       -0.5492
     52 C          65.5910   94.7537   10.4399 C.3     1  UNL1        0.0053
     53 C          66.0958   95.6539   11.5284 C.3     1  UNL1        0.0004
     54 C          68.1332   91.7163   10.6868 C.3     1  UNL1        0.0004
     55 C          67.0902   92.2486    9.7494 C.3     1  UNL1        0.0053
@<TRIPOS>UNITY_ATOM_ATTR
50 1
charge -1
@<TRIPOS>BOND
     1    54    55    1
     2    55    48    1
     3    48    52    1
     4    52    53    1
     5    48    47    1
     6    47    46    1
     7    46    45    1
     8    45    34    1
     9    34    35   ar
    10    35    36   ar
    11    36    40    1
    12    40    41    1
    13    41    42    1
    14    42    43    1
    15    43    44    1
    16    36    37   ar
    17    37    38   ar
    18    38    33    1
    19    33     1    1
    20     1     2   am
    21     2     3    2
    22     4     2    1
    23     4     5    1
    24     5     6    1
    25     6     7    1
    26     7     8    1
    27     8     9    1
    28     9    11    1
    29    11    12   ar
    30    12    13   ar
    31    13    14   ar
    32    14    17    1
    33    17    18    1
    34    18    19    1
    35    19    20    1
    36    20    21    1
    37    21    22   ar
    38    22    23    1
    39    22    24   ar
    40    24    25   ar
    41    25    26    1
    42    25    27   ar
    43    27    28   ar
    44    28    29    1
    45    14    15   ar
    46    15    16   ar
    47     1    30    1
    48    30    31    1
    49    31    32    1
    50    38    39   ar
    51    48    49    1
    52    49    50   ar
    53    49    51   ar
    54    39    34   ar
    55     9     4    1
    56    16    11   ar
    57    32    30    1
    58    28    21   ar
    59     6    10    1
@<TRIPOS>MOLECULE
*****
 55 59 0 0 0
SMALL
GASTEIGER

@<TRIPOS>ATOM
      1 N          64.2223   86.0656   14.8039 N.am    1  UNL1       -0.2770
      2 C          64.4749   84.9919   13.7874 C.2     1  UNL1        0.2270
      3 O          65.5077   85.1982   12.7194 O.2     1  UNL1       -0.2748
      4 C          63.6945   83.7118   13.8388 C.3     1  UNL1        0.0964
      5 C          63.9870   82.6975   14.9044 C.3     1  UNL1        0.0780
      6 N          63.2067   81.4175   14.9559 N.3     1  UNL1       -0.2970
      7 C          62.1339   81.1518   13.9418 C.3     1  UNL1        0.0689
      8 C          61.8414   82.1662   12.8762 C.3     1  UNL1        0.0220
      9 C          62.6217   83.4462   12.8247 C.3     1  UNL1        0.0337
     10 H          62.7608   81.3811   15.8726 H       1  UNL1        0.1233
     11 C          62.3292   84.4606   11.7591 C.ar    1  UNL1       -0.0217
     12 C          61.3579   85.5717   12.0276 C.ar    1  UNL1       -0.0012
     13 C          61.0655   86.5860   10.9620 C.ar    1  UNL1        0.0366
     14 C          61.7442   86.4893    9.6279 C.ar    1  UNL1        0.1387
     15 C          62.7154   85.3782    9.3594 C.ar    1  UNL1        0.0366
     16 C          63.0079   84.3639   10.4250 C.ar    1  UNL1       -0.0012
     17 O          61.4517   87.5037    8.5623 O.3     1  UNL1       -0.4714
     18 C          60.0342   87.8991    8.2721 C.3     1  UNL1        0.2525
     19 C          59.6736   88.4675    6.9316 C.3     1  UNL1        0.2525
     20 O          58.9209   89.7621    6.8437 O.3     1  UNL1       -0.4697
     21 C          59.1043   90.6569    5.6539 C.ar    1  UNL1        0.1596
     22 C          57.9067   91.2010    4.9330 C.ar    1  UNL1        0.0921
     23 CL         56.5258   90.8503    5.4019 Cl      1  UNL1       -0.0791
     24 C          58.0901   92.0959    3.7432 C.ar    1  UNL1        0.0103
     25 C          59.4711   92.4466    3.2743 C.ar    1  UNL1       -0.0200
     26 C          59.6545   93.3415    2.0846 C.3     1  UNL1        0.0311
     27 C          60.6687   91.9025    3.9952 C.ar    1  UNL1        0.0103
     28 C          60.4854   91.0077    5.1850 C.ar    1  UNL1        0.0921
     29 CL         61.6829   90.4636    5.9059 Cl      1  UNL1       -0.0791
     30 C          63.1894   85.8592   15.8720 C.3     1  UNL1        0.0758
     31 C          61.8713   85.2949   16.3127 C.3     1  UNL1        0.0215
     32 C          62.7184   86.0661   17.2810 C.3     1  UNL1        0.0215
     33 C          65.0026   87.3456   14.7526 C.3     1  UNL1        0.1201
     34 C          64.4938   91.0590   13.4481 C.ar    1  UNL1        0.1380
     35 C          63.4190   90.8542   12.4220 C.ar    1  UNL1        0.0326
     36 C          62.8721   89.4799   12.1728 C.ar    1  UNL1       -0.0194
     37 C          63.3999   88.3104   12.9496 C.ar    1  UNL1       -0.0067
     38 C          64.4747   88.5151   13.9757 C.ar    1  UNL1        0.0004
     39 C          65.0216   89.8894   14.2249 C.ar    1  UNL1        0.0343
     40 C          61.7972   89.2752   11.1467 C.3     1  UNL1        0.0290
     41 C          60.7646   90.3392   10.9196 C.3     1  UNL1        0.0367
     42 C          59.4631   90.2922   11.6636 C.3     1  UNL1        0.1426
     43 O          59.3203   89.4128   12.8704 O.3     1  UNL1       -0.3511
     44 C          58.0240   88.7055   13.1338 C.3     1  UNL1        0.1741
     45 O          65.0407   92.4333   13.6973 O.3     1  UNL1       -0.4755
     46 C          66.1036   92.9919   12.7984 C.3     1  UNL1        0.2058
     47 C          66.0367   92.7527   11.3191 C.3     1  UNL1        0.0525
     48 C          66.6498   93.7404   10.3711 C.3     1  UNL1        0.0356
     49 C          67.2629   94.7280    9.4232 C.2     1  UNL1        0.0498
     50 O          67.1235   94.5325    7.9426 O.co2   1  UNL1       -0.5492
     51 O          68.0154   95.9113    9.9559 O.co2   1  UNL1       -0.5492
     52 C          65.3717   94.5254   10.3624 C.3     1  UNL1        0.0053
     53 C          65.3801   95.9765   10.7423 C.3     1  UNL1        0.0004
     54 C          67.9979   91.6285    9.6839 C.3     1  UNL1        0.0004
     55 C          67.9279   92.9554   10.3799 C.3     1  UNL1        0.0053
@<TRIPOS>UNITY_ATOM_ATTR
50 1
charge -1
@<TRIPOS>BOND
     1    54    55    1
     2    55    48    1
     3    48    52    1
     4    52    53    1
     5    48    47    1
     6    47    46    1
     7    46    45    1
     8    45    34    1
     9    34    35   ar
    10    35    36   ar
    11    36    40    1
    12    40    41    1
    13    41    42    1
    14    42    43    1
    15    43    44    1
    16    36    37   ar
    17    37    38   ar
    18    38    33    1
    19    33     1    1
    20     1     2   am
    21     2     3    2
    22     4     2    1
    23     4     5    1
    24     5     6    1
    25     6     7    1
    26     7     8    1
    27     8     9    1
    28     9    11    1
    29    11    12   ar
    30    12    13   ar
    31    13    14   ar
    32    14    17    1
    33    17    18    1
    34    18    19    1
    35    19    20    1
    36    20    21    1
    37    21    22   ar
    38    22    23    1
    39    22    24   ar
    40    24    25   ar
    41    25    26    1
    42    25    27   ar
    43    27    28   ar
    44    28    29    1
    45    14    15   ar
    46    15    16   ar
    47     1    30    1
    48    30    31    1
    49    31    32    1
    50    38    39   ar
    51    48    49    1
    52    49    50   ar
    53    49    51   ar
    54    39    34   ar
    55     9     4    1
    56    16    11   ar
    57    32    30    1
    58    28    21   ar
    59     6    10    1
@<TRIPOS>MOLECULE
*****
 55 59 0 0 0
SMALL
GASTEIGER

@<TRIPOS>ATOM
      1 N          61.0017   90.1417   10.4270 N.am    1  UNL1       -0.2770
      2 C          61.1302   89.6711    9.0086 C.2     1  UNL1        0.2270
      3 O          61.9601   90.4506    8.0321 O.2     1  UNL1       -0.2748
      4 C          60.4288   88.4209    8.5666 C.3     1  UNL1        0.0964
      5 C          60.4844   87.1883    9.4196 C.3     1  UNL1        0.0780
      6 N          59.7830   85.9382    8.9777 N.3     1  UNL1       -0.2970
      7 C          59.0261   85.9207    7.6829 C.3     1  UNL1        0.0689
      8 C          58.9705   87.1533    6.8299 C.3     1  UNL1        0.0220
      9 C          59.6719   88.4034    7.2718 C.3     1  UNL1        0.0337
     10 H          59.1163   85.6995    9.7118 H       1  UNL1        0.1233
     11 C          59.6163   89.6360    6.4188 C.ar    1  UNL1       -0.0217
     12 C          58.3353   90.4069    6.2972 C.ar    1  UNL1       -0.0012
     13 C          58.2798   91.6395    5.4442 C.ar    1  UNL1        0.0366
     14 C          59.5052   92.1013    4.7128 C.ar    1  UNL1        0.1387
     15 C          60.7862   91.3304    4.8343 C.ar    1  UNL1        0.0366
     16 C          60.8417   90.0978    5.6873 C.ar    1  UNL1       -0.0012
     17 O          59.4496   93.3339    3.8598 O.3     1  UNL1       -0.4714
     18 C          60.3903   93.4875    2.7016 C.3     1  UNL1        0.2525
     19 C          60.1152   92.7724    1.4120 C.3     1  UNL1        0.2525
     20 O          61.2479   92.4175    0.4948 O.3     1  UNL1       -0.4697
     21 C          62.3694   93.3896    0.2770 C.ar    1  UNL1        0.1596
     22 C          63.6222   93.2848    1.0952 C.ar    1  UNL1        0.0921
     23 CL         63.7535   92.2081    2.1312 Cl      1  UNL1       -0.0791
     24 C          64.7436   94.2569    0.8774 C.ar    1  UNL1        0.0103
     25 C          64.6123   95.3336   -0.1586 C.ar    1  UNL1       -0.0200
     26 C          65.7338   96.3057   -0.3763 C.3     1  UNL1        0.0311
     27 C          63.3595   95.4384   -0.9768 C.ar    1  UNL1        0.0103
     28 C          62.2380   94.4664   -0.7590 C.ar    1  UNL1        0.0921
     29 CL         60.9852   94.5711   -1.5772 Cl      1  UNL1       -0.0791
     30 C          60.1717   89.3621   11.4036 C.3     1  UNL1        0.0758
     31 C          58.9279   89.2222   12.2302 C.3     1  UNL1        0.0215
     32 C          59.9780   88.1518   12.2682 C.3     1  UNL1        0.0215
     33 C          61.7030   91.3917   10.8690 C.3     1  UNL1        0.1201
     34 C          64.2125   90.2563   13.7261 C.ar    1  UNL1        0.1380
     35 C          65.4024   91.1154   13.4162 C.ar    1  UNL1        0.0326
     36 C          65.3591   92.0667   12.2572 C.ar    1  UNL1       -0.0194
     37 C          64.1260   92.1588   11.4082 C.ar    1  UNL1       -0.0067
     38 C          62.9362   91.2997   11.7181 C.ar    1  UNL1        0.0004
     39 C          62.9794   90.3484   12.8770 C.ar    1  UNL1        0.0343
     40 C          66.5490   92.9259   11.9473 C.3     1  UNL1        0.0290
     41 C          66.3793   94.1799   11.1420 C.3     1  UNL1        0.0367
     42 C          67.0864   94.3286    9.8275 C.3     1  UNL1        0.1426
     43 O          68.4757   93.7891    9.6581 O.3     1  UNL1       -0.3511
     44 C          68.6896   92.4666    8.9832 C.3     1  UNL1        0.1741
     45 O          64.2558   89.3050   14.8851 O.3     1  UNL1       -0.4755
     46 C          64.1666   87.8269   14.6459 C.3     1  UNL1        0.2058
     47 C          64.0021   86.8882   15.8043 C.3     1  UNL1        0.0525
     48 C          63.6169   85.4588   15.5624 C.3     1  UNL1        0.0356
     49 C          63.2317   84.0294   15.3207 C.2     1  UNL1        0.0498
     50 O          61.8659   83.6992   14.7959 O.co2   1  UNL1       -0.5492
     51 O          64.2124   82.9302   15.6037 O.co2   1  UNL1       -0.5492
     52 C          62.6842   85.5117   16.7360 C.3     1  UNL1        0.0053
     53 C          62.8028   86.6208   17.7389 C.3     1  UNL1        0.0004
     54 C          64.2603   84.4837   13.2418 C.3     1  UNL1        0.0004
     55 C          64.5496   85.4059   14.3889 C.3     1  UNL1        0.0053
@<TRIPOS>UNITY_ATOM_ATTR
50 1
charge -1
@<TRIPOS>BOND
     1    54    55    1
     2    55    48    1
     3    48    52    1
     4    52    53    1
     5    48    47    1
     6    47    46    1
     7    46    45    1
     8    45    34    1
     9    34    35   ar
    10    35    36   ar
    11    36    40    1
    12    40    41    1
    13    41    42    1
    14    42    43    1
    15    43    44    1
    16    36    37   ar
    17    37    38   ar
    18    38    33    1
    19    33     1    1
    20     1     2   am
    21     2     3    2
    22     4     2    1
    23     4     5    1
    24     5     6    1
    25     6     7    1
    26     7     8    1
    27     8     9    1
    28     9    11    1
    29    11    12   ar
    30    12    13   ar
    31    13    14   ar
    32    14    17    1
    33    17    18    1
    34    18    19    1
    35    19    20    1
    36    20    21    1
    37    21    22   ar
    38    22    23    1
    39    22    24   ar
    40    24    25   ar
    41    25    26    1
    42    25    27   ar
    43    27    28   ar
    44    28    29    1
    45    14    15   ar
    46    15    16   ar
    47     1    30    1
    48    30    31    1
    49    31    32    1
    50    38    39   ar
    51    48    49    1
    52    49    50   ar
    53    49    51   ar
    54    39    34   ar
    55     9     4    1
    56    16    11   ar
    57    32    30    1
    58    28    21   ar
    59     6    10    1
@<TRIPOS>MOLECULE
*****
 55 59 0 0 0
SMALL
GASTEIGER

@<TRIPOS>ATOM
      1 N          59.5398   94.4090   -5.4240 N.am    1  UNL1       -0.2770
      2 C          58.4442   93.8068   -4.5952 C.2     1  UNL1        0.2270
      3 O          58.7092   92.5736   -3.7834 O.2     1  UNL1       -0.2748
      4 C          57.0834   94.4378   -4.5783 C.3     1  UNL1        0.0964
      5 C          56.2109   94.3719   -5.7967 C.3     1  UNL1        0.0780
      6 N          54.8502   95.0028   -5.7798 N.3     1  UNL1       -0.2970
      7 C          54.3619   95.6996   -4.5445 C.3     1  UNL1        0.0689
      8 C          55.2344   95.7655   -3.3261 C.3     1  UNL1        0.0220
      9 C          56.5951   95.1346   -3.3430 C.3     1  UNL1        0.0337
     10 H          54.1796   94.2620   -5.9846 H       1  UNL1        0.1233
     11 C          57.4675   95.2005   -2.1246 C.ar    1  UNL1       -0.0217
     12 C          58.4138   96.3497   -1.9410 C.ar    1  UNL1       -0.0012
     13 C          59.2863   96.4156   -0.7226 C.ar    1  UNL1        0.0366
     14 C          59.2124   95.3322    0.3122 C.ar    1  UNL1        0.1387
     15 C          58.2661   94.1830    0.1286 C.ar    1  UNL1        0.0366
     16 C          57.3937   94.1171   -1.0898 C.ar    1  UNL1       -0.0012
     17 O          60.0848   95.3981    1.5306 O.3     1  UNL1       -0.4714
     18 C          60.6652   94.1405    2.1064 C.3     1  UNL1        0.2525
     19 C          59.7859   92.9487    2.3436 C.3     1  UNL1        0.2525
     20 O          58.9048   92.8962    3.5565 O.3     1  UNL1       -0.4697
     21 C          59.0275   91.7564    4.5238 C.ar    1  UNL1        0.1596
     22 C          57.7984   91.1730    5.1552 C.ar    1  UNL1        0.0921
     23 CL         56.4465   91.7293    4.8192 Cl      1  UNL1       -0.0791
     24 C          57.9211   90.0332    6.1226 C.ar    1  UNL1        0.0103
     25 C          59.2729   89.4769    6.4586 C.ar    1  UNL1       -0.0200
     26 C          59.3956   88.3371    7.4260 C.3     1  UNL1        0.0311
     27 C          60.5022   90.0604    5.8272 C.ar    1  UNL1        0.0103
     28 C          60.3795   91.2001    4.8598 C.ar    1  UNL1        0.0921
     29 CL         61.6086   91.7836    4.2285 Cl      1  UNL1       -0.0791
     30 C          59.2747   95.6422   -6.2358 C.3     1  UNL1        0.0758
     31 C          58.3533   96.7503   -6.6519 C.3     1  UNL1        0.0215
     32 C          59.7369   96.6701   -7.2257 C.3     1  UNL1        0.0215
     33 C          60.9006   93.7781   -5.4409 C.3     1  UNL1        0.1201
     34 C          63.6664   96.1702   -3.8988 C.ar    1  UNL1        0.1380
     35 C          64.5768   96.3478   -5.0776 C.ar    1  UNL1        0.0326
     36 C          64.2618   95.6688   -6.3775 C.ar    1  UNL1       -0.0194
     37 C          63.0364   94.8123   -6.4986 C.ar    1  UNL1       -0.0067
     38 C          62.1260   94.6347   -5.3198 C.ar    1  UNL1        0.0004
     39 C          62.4410   95.3137   -4.0199 C.ar    1  UNL1        0.0343
     40 C          65.1723   95.8464   -7.5563 C.3     1  UNL1        0.0290
     41 C          66.5595   95.2767   -7.5250 C.3     1  UNL1        0.0367
     42 C          66.8496   94.0534   -6.7070 C.3     1  UNL1        0.1426
     43 O          66.1868   92.7508   -7.0446 O.3     1  UNL1       -0.3511
     44 C          65.2319   92.1214   -6.0740 C.3     1  UNL1        0.1741
     45 O          63.9813   96.8492   -2.5989 O.3     1  UNL1       -0.4755
     46 C          64.5326   96.0549   -1.4521 C.3     1  UNL1        0.2058
     47 C          63.6036   95.4667   -0.4319 C.3     1  UNL1        0.0525
     48 C          64.0338   94.2798    0.3783 C.3     1  UNL1        0.0356
     49 C          64.4640   93.0930    1.1884 C.2     1  UNL1        0.0498
     50 O          65.8306   92.5066    0.9923 O.co2   1  UNL1       -0.5492
     51 O          63.5275   92.4924    2.1946 O.co2   1  UNL1       -0.5492
     52 C          63.5583   93.3643   -0.7106 C.3     1  UNL1        0.0053
     53 C          62.1334   93.4282   -1.1753 C.3     1  UNL1        0.0004
     54 C          63.6533   96.3460    1.9067 C.3     1  UNL1        0.0004
     55 C          64.5093   95.1953    1.4671 C.3     1  UNL1        0.0053
@<TRIPOS>UNITY_ATOM_ATTR
50 1
charge -1
@<TRIPOS>BOND
     1    54    55    1
     2    55    48    1
     3    48    52    1
     4    52    53    1
     5    48    47    1
     6    47    46    1
     7    46    45    1
     8    45    34    1
     9    34    35   ar
    10    35    36   ar
    11    36    40    1
    12    40    41    1
    13    41    42    1
    14    42    43    1
    15    43    44    1
    16    36    37   ar
    17    37    38   ar
    18    38    33    1
    19    33     1    1
    20     1     2   am
    21     2     3    2
    22     4     2    1
    23     4     5    1
    24     5     6    1
    25     6     7    1
    26     7     8    1
    27     8     9    1
    28     9    11    1
    29    11    12   ar
    30    12    13   ar
    31    13    14   ar
    32    14    17    1
    33    17    18    1
    34    18    19    1
    35    19    20    1
    36    20    21    1
    37    21    22   ar
    38    22    23    1
    39    22    24   ar
    40    24    25   ar
    41    25    26    1
    42    25    27   ar
    43    27    28   ar
    44    28    29    1
    45    14    15   ar
    46    15    16   ar
    47     1    30    1
    48    30    31    1
    49    31    32    1
    50    38    39   ar
    51    48    49    1
    52    49    50   ar
    53    49    51   ar
    54    39    34   ar
    55     9     4    1
    56    16    11   ar
    57    32    30    1
    58    28    21   ar
    59     6    10    1
@<TRIPOS>MOLECULE
*****
 55 59 0 0 0
SMALL
GASTEIGER

@<TRIPOS>ATOM
      1 N          61.0052   90.1231   10.3508 N.am    1  UNL1       -0.2770
      2 C          61.0958   89.6458    8.9317 C.2     1  UNL1        0.2270
      3 O          61.9652   90.3735    7.9497 O.2     1  UNL1       -0.2748
      4 C          60.3169   88.4406    8.4946 C.3     1  UNL1        0.0964
      5 C          60.3109   87.2034    9.3428 C.3     1  UNL1        0.0780
      6 N          59.5321   85.9982    8.9058 N.3     1  UNL1       -0.2970
      7 C          58.7593   86.0303    7.6206 C.3     1  UNL1        0.0689
      8 C          58.7653   87.2675    6.7725 C.3     1  UNL1        0.0220
      9 C          59.5441   88.4726    7.2095 C.3     1  UNL1        0.0337
     10 H          58.8618   85.7960    9.6475 H       1  UNL1        0.1233
     11 C          59.5501   89.7098    6.3613 C.ar    1  UNL1       -0.0217
     12 C          58.3089   90.5434    6.2422 C.ar    1  UNL1       -0.0012
     13 C          58.3149   91.7806    5.3940 C.ar    1  UNL1        0.0366
     14 C          59.5621   92.1841    4.6650 C.ar    1  UNL1        0.1387
     15 C          60.8034   91.3505    4.7842 C.ar    1  UNL1        0.0366
     16 C          60.7974   90.1133    5.6323 C.ar    1  UNL1       -0.0012
     17 O          59.5681   93.4213    3.8169 O.3     1  UNL1       -0.4714
     18 C          60.4436   93.4929    2.6011 C.3     1  UNL1        0.2525
     19 C          59.8308   93.6873    1.2459 C.3     1  UNL1        0.2525
     20 O          60.3965   94.7111    0.3067 O.3     1  UNL1       -0.4697
     21 C          61.3249   94.2881   -0.7930 C.ar    1  UNL1        0.1596
     22 C          60.7778   93.9525   -2.1487 C.ar    1  UNL1        0.0921
     23 CL         59.3025   94.0397   -2.4047 Cl      1  UNL1       -0.0791
     24 C          61.7062   93.5295   -3.2484 C.ar    1  UNL1        0.0103
     25 C          63.1816   93.4423   -2.9923 C.ar    1  UNL1       -0.0200
     26 C          64.1099   93.0194   -4.0920 C.3     1  UNL1        0.0311
     27 C          63.7287   93.7780   -1.6366 C.ar    1  UNL1        0.0103
     28 C          62.8003   94.2009   -0.5369 C.ar    1  UNL1        0.0921
     29 CL         63.3474   94.5366    0.8188 Cl      1  UNL1       -0.0791
     30 C          60.1357   89.3953   11.3329 C.3     1  UNL1        0.0758
     31 C          58.9737   89.3859   12.2813 C.3     1  UNL1        0.0215
     32 C          59.7918   88.1441   12.0854 C.3     1  UNL1        0.0215
     33 C          61.7840   91.3282   10.7879 C.3     1  UNL1        0.1201
     34 C          63.9482   89.9953   13.8358 C.ar    1  UNL1        0.1380
     35 C          65.1544   90.8813   13.7360 C.ar    1  UNL1        0.0326
     36 C          65.2371   91.9164   12.6534 C.ar    1  UNL1       -0.0194
     37 C          64.1137   92.0654   11.6708 C.ar    1  UNL1       -0.0067
     38 C          62.9075   91.1793   11.7706 C.ar    1  UNL1        0.0004
     39 C          62.8248   90.1442   12.8531 C.ar    1  UNL1        0.0343
     40 C          66.4433   92.8025   12.5536 C.3     1  UNL1        0.0290
     41 C          66.2752   94.2746   12.3202 C.3     1  UNL1        0.0367
     42 C          66.6147   94.8657   10.9840 C.3     1  UNL1        0.1426
     43 O          66.6153   93.9997    9.7592 O.3     1  UNL1       -0.3511
     44 C          67.7073   94.1420    8.7406 C.3     1  UNL1        0.1741
     45 O          63.8655   88.9602   14.9183 O.3     1  UNL1       -0.4755
     46 C          64.5229   87.6251   14.7312 C.3     1  UNL1        0.2058
     47 C          63.9032   86.6045   13.8233 C.3     1  UNL1        0.0525
     48 C          63.6417   85.2150   14.3246 C.3     1  UNL1        0.0356
     49 C          63.3803   83.8257   14.8258 C.2     1  UNL1        0.0498
     50 O          62.0078   83.2319   14.7085 O.co2   1  UNL1       -0.5492
     51 O          64.4914   83.0300   15.4443 O.co2   1  UNL1       -0.5492
     52 C          63.4048   84.7521   12.9177 C.3     1  UNL1        0.0053
     53 C          62.5352   85.5585   11.9991 C.3     1  UNL1        0.0004
     54 C          62.7528   85.6721   16.7227 C.3     1  UNL1        0.0004
     55 C          63.8787   85.6780   15.7315 C.3     1  UNL1        0.0053
@<TRIPOS>UNITY_ATOM_ATTR
50 1
charge -1
@<TRIPOS>BOND
     1    54    55    1
     2    55    48    1
     3    48    52    1
     4    52    53    1
     5    48    47    1
     6    47    46    1
     7    46    45    1
     8    45    34    1
     9    34    35   ar
    10    35    36   ar
    11    36    40    1
    12    40    41    1
    13    41    42    1
    14    42    43    1
    15    43    44    1
    16    36    37   ar
    17    37    38   ar
    18    38    33    1
    19    33     1    1
    20     1     2   am
    21     2     3    2
    22     4     2    1
    23     4     5    1
    24     5     6    1
    25     6     7    1
    26     7     8    1
    27     8     9    1
    28     9    11    1
    29    11    12   ar
    30    12    13   ar
    31    13    14   ar
    32    14    17    1
    33    17    18    1
    34    18    19    1
    35    19    20    1
    36    20    21    1
    37    21    22   ar
    38    22    23    1
    39    22    24   ar
    40    24    25   ar
    41    25    26    1
    42    25    27   ar
    43    27    28   ar
    44    28    29    1
    45    14    15   ar
    46    15    16   ar
    47     1    30    1
    48    30    31    1
    49    31    32    1
    50    38    39   ar
    51    48    49    1
    52    49    50   ar
    53    49    51   ar
    54    39    34   ar
    55     9     4    1
    56    16    11   ar
    57    32    30    1
    58    28    21   ar
    59     6    10    1
@<TRIPOS>MOLECULE
*****
 55 59 0 0 0
SMALL
GASTEIGER

@<TRIPOS>ATOM
      1 N          65.0760   90.2696   14.3088 N.am    1  UNL1       -0.2770
      2 C          64.1627   90.8386   13.2636 C.2     1  UNL1        0.2270
      3 O          62.7956   90.2545   13.0639 O.2     1  UNL1       -0.2748
      4 C          64.6166   91.9916   12.4183 C.3     1  UNL1        0.0964
      5 C          65.6485   92.9456   12.9427 C.3     1  UNL1        0.0780
      6 N          66.1024   94.0986   12.0975 N.3     1  UNL1       -0.2970
      7 C          65.5243   94.2976   10.7277 C.3     1  UNL1        0.0689
      8 C          64.4924   93.3437   10.2033 C.3     1  UNL1        0.0220
      9 C          64.0385   92.1907   11.0486 C.3     1  UNL1        0.0337
     10 H          67.1106   93.9985   11.9798 H       1  UNL1        0.1233
     11 C          63.0065   91.2367   10.5241 C.ar    1  UNL1       -0.0217
     12 C          61.5515   91.4849   10.7907 C.ar    1  UNL1       -0.0012
     13 C          60.5195   90.5309   10.2663 C.ar    1  UNL1        0.0366
     14 C          60.9426   89.3288    9.4753 C.ar    1  UNL1        0.1387
     15 C          62.3977   89.0806    9.2087 C.ar    1  UNL1        0.0366
     16 C          63.4297   90.0345    9.7332 C.ar    1  UNL1       -0.0012
     17 O          59.9107   88.3748    8.9508 O.3     1  UNL1       -0.4714
     18 C          59.4954   88.4364    7.5108 C.3     1  UNL1        0.2525
     19 C          59.5883   89.7305    6.7581 C.3     1  UNL1        0.2525
     20 O          60.6220   89.9013    5.6846 O.3     1  UNL1       -0.4697
     21 C          60.4814   91.0030    4.6764 C.ar    1  UNL1        0.1596
     22 C          61.6436   91.3740    3.8038 C.ar    1  UNL1        0.0921
     23 CL         62.9465   90.6433    3.9394 Cl      1  UNL1       -0.0791
     24 C          61.5030   92.4757    2.7956 C.ar    1  UNL1        0.0103
     25 C          60.2000   93.2064    2.6601 C.ar    1  UNL1       -0.0200
     26 C          60.0594   94.3081    1.6519 C.3     1  UNL1        0.0311
     27 C          59.0377   92.8354    3.5327 C.ar    1  UNL1        0.0103
     28 C          59.1784   91.7337    4.5409 C.ar    1  UNL1        0.0921
     29 CL         58.0161   91.3627    5.4135 Cl      1  UNL1       -0.0791
     30 C          66.4431   90.8538   14.5085 C.3     1  UNL1        0.0758
     31 C          67.4574   91.5123   15.3959 C.3     1  UNL1        0.0215
     32 C          67.7967   91.2069   13.9671 C.3     1  UNL1        0.0215
     33 C          64.6222   89.1167   15.1541 C.3     1  UNL1        0.1201
     34 C          63.9575   85.2524   14.5411 C.ar    1  UNL1        0.1380
     35 C          63.2762   85.2904   13.2053 C.ar    1  UNL1        0.0326
     36 C          63.0436   86.6038   12.5191 C.ar    1  UNL1       -0.0194
     37 C          63.4922   87.8792   13.1687 C.ar    1  UNL1       -0.0067
     38 C          64.1735   87.8412   14.5044 C.ar    1  UNL1        0.0004
     39 C          64.4061   86.5278   15.1907 C.ar    1  UNL1        0.0343
     40 C          62.3623   86.6417   11.1832 C.3     1  UNL1        0.0290
     41 C          62.3033   85.4052   10.3360 C.3     1  UNL1        0.0367
     42 C          62.6990   85.4670    8.8905 C.3     1  UNL1        0.1426
     43 O          61.6474   85.6103    7.8305 O.3     1  UNL1       -0.3511
     44 C          61.7506   84.8198    6.5599 C.3     1  UNL1        0.1741
     45 O          64.1901   83.9390   15.2273 O.3     1  UNL1       -0.4755
     46 C          64.0857   82.6590   14.4523 C.3     1  UNL1        0.2058
     47 C          63.5716   82.6752   13.0432 C.3     1  UNL1        0.0525
     48 C          63.1855   81.3910   12.3709 C.3     1  UNL1        0.0356
     49 C          62.7994   80.1069   11.6987 C.2     1  UNL1        0.0498
     50 O          62.4362   78.9081   12.5239 O.co2   1  UNL1       -0.5492
     51 O          62.7766   80.0216   10.2013 O.co2   1  UNL1       -0.5492
     52 C          62.6677   80.8635   13.6761 C.3     1  UNL1        0.0053
     53 C          61.2482   81.1290   14.0821 C.3     1  UNL1        0.0004
     54 C          64.6901   83.0483   11.0519 C.3     1  UNL1        0.0004
     55 C          63.7034   81.9186   11.0658 C.3     1  UNL1        0.0053
@<TRIPOS>UNITY_ATOM_ATTR
50 1
charge -1
@<TRIPOS>BOND
     1    54    55    1
     2    55    48    1
     3    48    52    1
     4    52    53    1
     5    48    47    1
     6    47    46    1
     7    46    45    1
     8    45    34    1
     9    34    35   ar
    10    35    36   ar
    11    36    40    1
    12    40    41    1
    13    41    42    1
    14    42    43    1
    15    43    44    1
    16    36    37   ar
    17    37    38   ar
    18    38    33    1
    19    33     1    1
    20     1     2   am
    21     2     3    2
    22     4     2    1
    23     4     5    1
    24     5     6    1
    25     6     7    1
    26     7     8    1
    27     8     9    1
    28     9    11    1
    29    11    12   ar
    30    12    13   ar
    31    13    14   ar
    32    14    17    1
    33    17    18    1
    34    18    19    1
    35    19    20    1
    36    20    21    1
    37    21    22   ar
    38    22    23    1
    39    22    24   ar
    40    24    25   ar
    41    25    26    1
    42    25    27   ar
    43    27    28   ar
    44    28    29    1
    45    14    15   ar
    46    15    16   ar
    47     1    30    1
    48    30    31    1
    49    31    32    1
    50    38    39   ar
    51    48    49    1
    52    49    50   ar
    53    49    51   ar
    54    39    34   ar
    55     9     4    1
    56    16    11   ar
    57    32    30    1
    58    28    21   ar
    59     6    10    1
@<TRIPOS>MOLECULE
*****
 55 59 0 0 0
SMALL
GASTEIGER

@<TRIPOS>ATOM
      1 N          61.5354   85.6795   10.2736 N.am    1  UNL1       -0.2770
      2 C          61.8971   85.0260   11.5744 C.2     1  UNL1        0.2270
      3 O          61.1727   85.4061   12.8316 O.2     1  UNL1       -0.2748
      4 C          62.9833   83.9923   11.6178 C.3     1  UNL1        0.0964
      5 C          63.1827   83.0646   10.4561 C.3     1  UNL1        0.0780
      6 N          64.2687   82.0310   10.4995 N.3     1  UNL1       -0.2970
      7 C          65.1554   81.9249   11.7047 C.3     1  UNL1        0.0689
      8 C          64.9560   82.8526   12.8665 C.3     1  UNL1        0.0220
      9 C          63.8699   83.8863   12.8230 C.3     1  UNL1        0.0337
     10 H          64.8775   82.2098    9.7009 H       1  UNL1        0.1233
     11 C          63.6705   84.8139   13.9848 C.ar    1  UNL1       -0.0217
     12 C          64.2832   86.1829   13.9652 C.ar    1  UNL1       -0.0012
     13 C          64.0837   87.1106   15.1269 C.ar    1  UNL1        0.0366
     14 C          63.2717   86.6692   16.3083 C.ar    1  UNL1        0.1387
     15 C          62.6590   85.3002   16.3280 C.ar    1  UNL1        0.0366
     16 C          62.8585   84.3726   15.1662 C.ar    1  UNL1       -0.0012
     17 O          63.0723   87.5969   17.4701 O.3     1  UNL1       -0.4714
     18 C          63.1545   89.0808   17.2676 C.3     1  UNL1        0.2525
     19 C          62.9105   89.6670   15.9087 C.3     1  UNL1        0.2525
     20 O          63.2632   91.0992   15.6353 O.3     1  UNL1       -0.4697
     21 C          64.6955   91.4919   15.4249 C.ar    1  UNL1        0.1596
     22 C          65.3764   92.3990   16.4065 C.ar    1  UNL1        0.0921
     23 CL         64.6250   92.9134   17.5984 Cl      1  UNL1       -0.0791
     24 C          66.8087   92.7917   16.1961 C.ar    1  UNL1        0.0103
     25 C          67.5601   92.2772   15.0042 C.ar    1  UNL1       -0.0200
     26 C          68.9925   92.6699   14.7939 C.3     1  UNL1        0.0311
     27 C          66.8792   91.3701   14.0226 C.ar    1  UNL1        0.0103
     28 C          65.4469   90.9774   14.2330 C.ar    1  UNL1        0.0921
     29 CL         64.7660   90.0703   13.2514 Cl      1  UNL1       -0.0791
     30 C          62.2598   85.2993    9.0163 C.3     1  UNL1        0.0758
     31 C          63.5401   85.1512    8.2489 C.3     1  UNL1        0.0215
     32 C          62.2342   84.7890    7.6060 C.3     1  UNL1        0.0215
     33 C          60.4493   86.7132   10.2301 C.3     1  UNL1        0.1201
     34 C          60.3913   89.9684    7.9607 C.ar    1  UNL1        0.1380
     35 C          61.3429   90.8533    8.7099 C.ar    1  UNL1        0.0326
     36 C          61.9967   90.3581    9.9658 C.ar    1  UNL1       -0.0194
     37 C          61.6989   88.9781   10.4726 C.ar    1  UNL1       -0.0067
     38 C          60.7472   88.0933    9.7233 C.ar    1  UNL1        0.0004
     39 C          60.0934   88.5884    8.4674 C.ar    1  UNL1        0.0343
     40 C          62.9484   91.2430   10.7151 C.3     1  UNL1        0.0290
     41 C          64.2058   91.7228   10.0527 C.3     1  UNL1        0.0367
     42 C          65.0028   92.8329   10.6712 C.3     1  UNL1        0.1426
     43 O          66.4965   92.8495   10.5355 O.3     1  UNL1       -0.3511
     44 C          67.1912   94.0844   10.0429 C.3     1  UNL1        0.1741
     45 O          59.7375   90.4636    6.7048 O.3     1  UNL1       -0.4755
     46 C          60.5532   90.6582    5.4611 C.3     1  UNL1        0.2058
     47 C          60.1510   91.6956    4.4551 C.3     1  UNL1        0.0525
     48 C          61.1047   92.0962    3.3687 C.3     1  UNL1        0.0356
     49 C          62.0583   92.4968    2.2824 C.2     1  UNL1        0.0498
     50 O          61.7877   92.0975    0.8620 O.co2   1  UNL1       -0.5492
     51 O          63.2825   93.2967    2.6164 O.co2   1  UNL1       -0.5492
     52 C          62.2072   91.3526    4.0624 C.3     1  UNL1        0.0053
     53 C          63.1620   90.5128    3.2666 C.3     1  UNL1        0.0004
     54 C          60.1553   94.3019    2.3768 C.3     1  UNL1        0.0004
     55 C          60.0021   92.8398    2.6750 C.3     1  UNL1        0.0053
@<TRIPOS>UNITY_ATOM_ATTR
50 1
charge -1
@<TRIPOS>BOND
     1    54    55    1
     2    55    48    1
     3    48    52    1
     4    52    53    1
     5    48    47    1
     6    47    46    1
     7    46    45    1
     8    45    34    1
     9    34    35   ar
    10    35    36   ar
    11    36    40    1
    12    40    41    1
    13    41    42    1
    14    42    43    1
    15    43    44    1
    16    36    37   ar
    17    37    38   ar
    18    38    33    1
    19    33     1    1
    20     1     2   am
    21     2     3    2
    22     4     2    1
    23     4     5    1
    24     5     6    1
    25     6     7    1
    26     7     8    1
    27     8     9    1
    28     9    11    1
    29    11    12   ar
    30    12    13   ar
    31    13    14   ar
    32    14    17    1
    33    17    18    1
    34    18    19    1
    35    19    20    1
    36    20    21    1
    37    21    22   ar
    38    22    23    1
    39    22    24   ar
    40    24    25   ar
    41    25    26    1
    42    25    27   ar
    43    27    28   ar
    44    28    29    1
    45    14    15   ar
    46    15    16   ar
    47     1    30    1
    48    30    31    1
    49    31    32    1
    50    38    39   ar
    51    48    49    1
    52    49    50   ar
    53    49    51   ar
    54    39    34   ar
    55     9     4    1
    56    16    11   ar
    57    32    30    1
    58    28    21   ar
    59     6    10    1
@<TRIPOS>MOLECULE
*****
 55 59 0 0 0
SMALL
GASTEIGER

@<TRIPOS>ATOM
      1 N          62.8123   86.9653   14.6645 N.am    1  UNL1       -0.2770
      2 C          63.3118   87.7193   13.4678 C.2     1  UNL1        0.2270
      3 O          63.1256   87.1513   12.0921 O.2     1  UNL1       -0.2748
      4 C          63.9974   89.0414   13.6469 C.3     1  UNL1        0.0964
      5 C          65.0526   89.2024   14.7008 C.3     1  UNL1        0.0780
      6 N          65.7383   90.5244   14.8799 N.3     1  UNL1       -0.2970
      7 C          65.3688   91.6854   14.0051 C.3     1  UNL1        0.0689
      8 C          64.3136   91.5245   12.9513 C.3     1  UNL1        0.0220
      9 C          63.6279   90.2025   12.7721 C.3     1  UNL1        0.0337
     10 H          66.7357   90.3595   14.7446 H       1  UNL1        0.1233
     11 C          62.5727   90.0416   11.7183 C.ar    1  UNL1       -0.0217
     12 C          61.1360   89.8732   12.1150 C.ar    1  UNL1       -0.0012
     13 C          60.0808   89.7123   11.0611 C.ar    1  UNL1        0.0366
     14 C          60.4623   89.7198    9.6105 C.ar    1  UNL1        0.1387
     15 C          61.8990   89.8882    9.2138 C.ar    1  UNL1        0.0366
     16 C          62.9542   90.0491   10.2676 C.ar    1  UNL1       -0.0012
     17 O          59.4071   89.5589    8.5566 O.3     1  UNL1       -0.4714
     18 C          59.7829   89.0785    7.1862 C.3     1  UNL1        0.2525
     19 C          59.6660   90.0015    6.0097 C.3     1  UNL1        0.2525
     20 O          60.8620   90.7776    5.5435 O.3     1  UNL1       -0.4697
     21 C          60.8029   91.5449    4.2560 C.ar    1  UNL1        0.1596
     22 C          59.5449   92.2640    3.8685 C.ar    1  UNL1        0.0921
     23 CL         58.3460   92.2159    4.7686 Cl      1  UNL1       -0.0791
     24 C          59.4858   93.0313    2.5810 C.ar    1  UNL1        0.0103
     25 C          60.6848   93.0795    1.6809 C.ar    1  UNL1       -0.0200
     26 C          60.6257   93.8468    0.3934 C.3     1  UNL1        0.0311
     27 C          61.9429   92.3604    2.0684 C.ar    1  UNL1        0.0103
     28 C          62.0020   91.5931    3.3559 C.ar    1  UNL1        0.0921
     29 CL         63.2600   90.8739    3.7434 Cl      1  UNL1       -0.0791
     30 C          62.9986   87.5334   16.0403 C.3     1  UNL1        0.0758
     31 C          63.1535   87.3325   17.5186 C.3     1  UNL1        0.0215
     32 C          63.1662   88.7183   16.9447 C.3     1  UNL1        0.0215
     33 C          62.1267   85.6433   14.4855 C.3     1  UNL1        0.1201
     34 C          64.0750   83.7000   11.6258 C.ar    1  UNL1        0.1380
     35 C          64.1778   82.3319   12.2322 C.ar    1  UNL1        0.0326
     36 C          63.5969   82.0676   13.5896 C.ar    1  UNL1       -0.0194
     37 C          62.9132   83.1713   14.3407 C.ar    1  UNL1       -0.0067
     38 C          62.8104   84.5394   13.7344 C.ar    1  UNL1        0.0004
     39 C          63.3914   84.8038   12.3769 C.ar    1  UNL1        0.0343
     40 C          63.6996   80.6994   14.1959 C.3     1  UNL1        0.0290
     41 C          62.5972   79.7032   13.9903 C.3     1  UNL1        0.0367
     42 C          61.2712   80.1524   13.4520 C.3     1  UNL1        0.1426
     43 O          60.2087   80.6443   14.3897 O.3     1  UNL1       -0.3511
     44 C          58.8967   79.9229   14.4813 C.3     1  UNL1        0.1741
     45 O          64.6560   83.9643   10.2684 O.3     1  UNL1       -0.4755
     46 C          63.7588   84.0274    9.0679 C.3     1  UNL1        0.2058
     47 C          63.0146   85.2911    8.7534 C.3     1  UNL1        0.0525
     48 C          61.7918   85.2452    7.8858 C.3     1  UNL1        0.0356
     49 C          60.5690   85.1993    7.0182 C.2     1  UNL1        0.0498
     50 O          60.4649   84.1806    5.9221 O.co2   1  UNL1       -0.5492
     51 O          59.4503   86.1721    7.2467 O.co2   1  UNL1       -0.5492
     52 C          62.4843   84.2892    6.9604 C.3     1  UNL1        0.0053
     53 C          62.9711   84.7605    5.6221 C.3     1  UNL1        0.0004
     54 C          61.1926   86.0085   10.2958 C.3     1  UNL1        0.0004
     55 C          61.0992   86.2012    8.8112 C.3     1  UNL1        0.0053
@<TRIPOS>UNITY_ATOM_ATTR
50 1
charge -1
@<TRIPOS>BOND
     1    54    55    1
     2    55    48    1
     3    48    52    1
     4    52    53    1
     5    48    47    1
     6    47    46    1
     7    46    45    1
     8    45    34    1
     9    34    35   ar
    10    35    36   ar
    11    36    40    1
    12    40    41    1
    13    41    42    1
    14    42    43    1
    15    43    44    1
    16    36    37   ar
    17    37    38   ar
    18    38    33    1
    19    33     1    1
    20     1     2   am
    21     2     3    2
    22     4     2    1
    23     4     5    1
    24     5     6    1
    25     6     7    1
    26     7     8    1
    27     8     9    1
    28     9    11    1
    29    11    12   ar
    30    12    13   ar
    31    13    14   ar
    32    14    17    1
    33    17    18    1
    34    18    19    1
    35    19    20    1
    36    20    21    1
    37    21    22   ar
    38    22    23    1
    39    22    24   ar
    40    24    25   ar
    41    25    26    1
    42    25    27   ar
    43    27    28   ar
    44    28    29    1
    45    14    15   ar
    46    15    16   ar
    47     1    30    1
    48    30    31    1
    49    31    32    1
    50    38    39   ar
    51    48    49    1
    52    49    50   ar
    53    49    51   ar
    54    39    34   ar
    55     9     4    1
    56    16    11   ar
    57    32    30    1
    58    28    21   ar
    59     6    10    1
