@<TRIPOS>MOLECULE
*****
 28 30 0 0 0
SMALL
GASTEIGER

@<TRIPOS>ATOM
      1 C          61.7674   89.4360   10.9455 C.2     1  UNL1        0.4113
      2 O          61.7377   89.7292    9.4748 O.2     1  UNL1       -0.2257
      3 N          62.7391   90.1546   11.8340 N.am    1  UNL1       -0.1863
      4 C          62.8842   89.9675   13.3152 C.3     1  UNL1        0.1503
      5 C          63.9711   90.8838   13.7939 C.ar    1  UNL1        0.0835
      6 N          64.5492   91.1294   15.1560 N.ar    1  UNL1       -0.2524
      7 C          65.6541   92.1285   15.3329 C.ar    1  UNL1        0.0563
      8 C          66.2323   92.3741   16.6950 C.3     1  UNL1        0.0518
      9 C          66.1808   92.8819   14.1475 C.ar    1  UNL1        0.0072
     10 C          65.6026   92.6362   12.7854 C.ar    1  UNL1        0.0049
     11 C          64.4978   91.6372   12.6086 C.ar    1  UNL1        0.0691
     12 C          63.7364   91.1865   11.3973 C.2     1  UNL1        0.2588
     13 O          63.9370   91.6810    9.9954 O.2     1  UNL1       -0.2694
     14 C          66.1292   93.3896   11.6000 C.ar    1  UNL1        0.0106
     15 C          65.4903   94.6829   11.1891 C.ar    1  UNL1        0.0017
     16 C          66.0169   95.4363   10.0037 C.ar    1  UNL1        0.0114
     17 C          67.1826   94.8964    9.2294 C.ar    1  UNL1        0.0585
     18 CL         67.7092   95.6498    8.0440 Cl      1  UNL1       -0.0822
     19 C          67.8216   93.6030    9.6403 C.ar    1  UNL1        0.0228
     20 C          67.2950   92.8496   10.8257 C.ar    1  UNL1        0.0585
     21 CL         67.9339   91.5563   11.2366 Cl      1  UNL1       -0.0822
     22 C          67.2856   93.8809   14.3243 C.3     1  UNL1        0.0934
     23 N          68.6386   93.4286   14.7877 N.3     1  UNL1       -0.3174
     24 H          68.5711   93.0779   15.7431 H       1  UNL1        0.1192
     25 H          69.2881   94.2146   14.7591 H       1  UNL1        0.1192
     26 O          60.8255   88.4243   11.5277 O.3     1  UNL1       -0.4343
     27 C          61.8383   86.0565   11.1839 C.3     1  UNL1        0.0513
     28 C          60.7416   87.0491   10.9346 C.3     1  UNL1        0.2103
@<TRIPOS>BOND
     1    27    28    1
     2    28    26    1
     3    26     1    1
     4     1     2    2
     5     1     3   am
     6     3     4    1
     7     4     5    1
     8     5     6   ar
     9     6     7   ar
    10     7     8    1
    11     7     9   ar
    12     9    22    1
    13    22    23    1
    14     9    10   ar
    15    10    14    1
    16    14    15   ar
    17    15    16   ar
    18    16    17   ar
    19    17    18    1
    20    17    19   ar
    21    19    20   ar
    22    20    21    1
    23    10    11   ar
    24    11    12    1
    25    12    13    2
    26    12     3   am
    27    11     5   ar
    28    20    14   ar
    29    23    24    1
    30    23    25    1
@<TRIPOS>MOLECULE
*****
 28 30 0 0 0
SMALL
GASTEIGER

@<TRIPOS>ATOM
      1 C          60.4329   87.6833    8.6511 C.2     1  UNL1        0.4113
      2 O          59.9435   86.4000    8.0482 O.2     1  UNL1       -0.2257
      3 N          61.2820   87.6554    9.8873 N.am    1  UNL1       -0.1863
      4 C          61.8417   88.8509   10.5998 C.3     1  UNL1        0.1503
      5 C          62.6261   88.3614   11.7809 C.ar    1  UNL1        0.0835
      6 N          63.3989   89.0862   12.8427 N.ar    1  UNL1       -0.2524
      7 C          64.0968   88.3130   13.9221 C.ar    1  UNL1        0.0563
      8 C          64.8696   89.0378   14.9839 C.3     1  UNL1        0.0518
      9 C          64.0219   86.8150   13.9397 C.ar    1  UNL1        0.0072
     10 C          63.2491   86.0902   12.8779 C.ar    1  UNL1        0.0049
     11 C          62.5512   86.8634   11.7985 C.ar    1  UNL1        0.0691
     12 C          61.7205   86.4270   10.6282 C.2     1  UNL1        0.2588
     13 O          61.3869   85.0110   10.2629 O.2     1  UNL1       -0.2694
     14 C          63.1742   84.5921   12.8955 C.ar    1  UNL1        0.0106
     15 C          63.8812   83.7934   11.8409 C.ar    1  UNL1        0.0017
     16 C          63.8063   82.2954   11.8585 C.ar    1  UNL1        0.0114
     17 C          63.0244   81.5961   12.9306 C.ar    1  UNL1        0.0585
     18 CL         62.9495   80.0981   12.9482 Cl      1  UNL1       -0.0822
     19 C          62.3173   82.3948   13.9853 C.ar    1  UNL1        0.0228
     20 C          62.3922   83.8928   13.9677 C.ar    1  UNL1        0.0585
     21 CL         61.6852   84.6915   15.0222 Cl      1  UNL1       -0.0822
     22 C          64.7198   86.0418   15.0191 C.3     1  UNL1        0.0934
     23 N          66.0119   85.3398   14.7230 N.3     1  UNL1       -0.3174
     24 H          65.8447   84.5874   14.0549 H       1  UNL1        0.1192
     25 H          66.3926   84.9503   15.5854 H       1  UNL1        0.1192
     26 O          60.0732   88.9946    8.0178 O.3     1  UNL1       -0.4343
     27 C          59.2754   90.2122    5.8658 C.3     1  UNL1        0.0513
     28 C          59.2294   89.0222    6.7779 C.3     1  UNL1        0.2103
@<TRIPOS>BOND
     1    27    28    1
     2    28    26    1
     3    26     1    1
     4     1     2    2
     5     1     3   am
     6     3     4    1
     7     4     5    1
     8     5     6   ar
     9     6     7   ar
    10     7     8    1
    11     7     9   ar
    12     9    22    1
    13    22    23    1
    14     9    10   ar
    15    10    14    1
    16    14    15   ar
    17    15    16   ar
    18    16    17   ar
    19    17    18    1
    20    17    19   ar
    21    19    20   ar
    22    20    21    1
    23    10    11   ar
    24    11    12    1
    25    12    13    2
    26    12     3   am
    27    11     5   ar
    28    20    14   ar
    29    23    24    1
    30    23    25    1
@<TRIPOS>MOLECULE
*****
 28 30 0 0 0
SMALL
GASTEIGER

@<TRIPOS>ATOM
      1 C          64.0771   90.2244   13.9268 C.2     1  UNL1        0.4113
      2 O          64.8632   89.2647   14.7700 O.2     1  UNL1       -0.2257
      3 N          63.2855   89.7203   12.7567 N.am    1  UNL1       -0.1863
      4 C          62.4556   90.5560   11.8278 C.3     1  UNL1        0.1503
      5 C          61.8420   89.6442   10.8071 C.ar    1  UNL1        0.0835
      6 N          60.9311   89.9073    9.6447 N.ar    1  UNL1       -0.2524
      7 C          60.4708   88.7710    8.7803 C.ar    1  UNL1        0.0563
      8 C          59.5600   89.0341    7.6180 C.3     1  UNL1        0.0518
      9 C          60.9215   87.3716    9.0784 C.ar    1  UNL1        0.0072
     10 C          61.8324   87.1086   10.2408 C.ar    1  UNL1        0.0049
     11 C          62.2926   88.2448   11.1051 C.ar    1  UNL1        0.0691
     12 C          63.1848   88.2919   12.3100 C.2     1  UNL1        0.2588
     13 O          63.8580   87.1169   12.9550 O.2     1  UNL1       -0.2694
     14 C          62.2830   85.7093   10.5388 C.ar    1  UNL1        0.0106
     15 C          61.9017   85.0586   11.8354 C.ar    1  UNL1        0.0017
     16 C          62.3523   83.6593   12.1334 C.ar    1  UNL1        0.0114
     17 C          63.1843   82.9106   11.1348 C.ar    1  UNL1        0.0585
     18 CL         63.6350   81.5113   11.4328 Cl      1  UNL1       -0.0822
     19 C          63.5657   83.5613    9.8381 C.ar    1  UNL1        0.0228
     20 C          63.1151   84.9606    9.5401 C.ar    1  UNL1        0.0585
     21 CL         63.4964   85.6112    8.2435 Cl      1  UNL1       -0.0822
     22 C          60.4612   86.2354    8.2140 C.3     1  UNL1        0.0934
     23 N          59.0242   86.1475    7.7933 N.3     1  UNL1       -0.3174
     24 H          58.4391   85.9862    8.6132 H       1  UNL1        0.1192
     25 H          58.9089   85.3759    7.1362 H       1  UNL1        0.1192
     26 O          64.0827   91.6883   14.2538 O.3     1  UNL1       -0.4343
     27 C          66.1167   92.4904   15.6573 C.3     1  UNL1        0.0513
     28 C          65.3828   92.4303   14.3505 C.3     1  UNL1        0.2103
@<TRIPOS>BOND
     1    27    28    1
     2    28    26    1
     3    26     1    1
     4     1     2    2
     5     1     3   am
     6     3     4    1
     7     4     5    1
     8     5     6   ar
     9     6     7   ar
    10     7     8    1
    11     7     9   ar
    12     9    22    1
    13    22    23    1
    14     9    10   ar
    15    10    14    1
    16    14    15   ar
    17    15    16   ar
    18    16    17   ar
    19    17    18    1
    20    17    19   ar
    21    19    20   ar
    22    20    21    1
    23    10    11   ar
    24    11    12    1
    25    12    13    2
    26    12     3   am
    27    11     5   ar
    28    20    14   ar
    29    23    24    1
    30    23    25    1
@<TRIPOS>MOLECULE
*****
 28 30 0 0 0
SMALL
GASTEIGER

@<TRIPOS>ATOM
      1 C          60.8689   89.2028    9.5149 C.2     1  UNL1        0.4113
      2 O          60.1099   88.0059   10.0059 O.2     1  UNL1       -0.2257
      3 N          61.9345   89.8188   10.3724 N.am    1  UNL1       -0.1863
      4 C          62.7722   91.0113   10.0171 C.3     1  UNL1        0.1503
      5 C          63.7048   91.2800   11.1608 C.ar    1  UNL1        0.0835
      6 N          64.7582   92.3266   11.3723 N.ar    1  UNL1       -0.2524
      7 C          65.5503   92.3469   12.6460 C.ar    1  UNL1        0.0563
      8 C          66.6037   93.3936   12.8575 C.3     1  UNL1        0.0518
      9 C          65.2891   91.3204   13.7081 C.ar    1  UNL1        0.0072
     10 C          64.2356   90.2737   13.4965 C.ar    1  UNL1        0.0049
     11 C          63.4435   90.2535   12.2229 C.ar    1  UNL1        0.0691
     12 C          62.3494   89.3504   11.7356 C.2     1  UNL1        0.2588
     13 O          61.7716   88.1838   12.4808 O.2     1  UNL1       -0.2694
     14 C          63.9743   89.2472   14.5586 C.ar    1  UNL1        0.0106
     15 C          64.3402   87.8121   14.3209 C.ar    1  UNL1        0.0017
     16 C          64.0789   86.7856   15.3830 C.ar    1  UNL1        0.0114
     17 C          63.4517   87.1942   16.6828 C.ar    1  UNL1        0.0585
     18 CL         63.1904   86.1677   17.7449 Cl      1  UNL1       -0.0822
     19 C          63.0858   88.6293   16.9206 C.ar    1  UNL1        0.0228
     20 C          63.3471   89.6558   15.8585 C.ar    1  UNL1        0.0585
     21 CL         62.9812   91.0909   16.0963 Cl      1  UNL1       -0.0822
     22 C          66.0811   91.3406   14.9817 C.3     1  UNL1        0.0934
     23 N          65.9881   92.5197   15.9042 N.3     1  UNL1       -0.3174
     24 H          66.3809   93.3418   15.4457 H       1  UNL1        0.1192
     25 H          66.5099   92.3249   16.7586 H       1  UNL1        0.1192
     26 O          60.5625   89.7838    8.1664 O.3     1  UNL1       -0.4343
     27 C          59.0669   89.8486    6.0429 C.3     1  UNL1        0.0513
     28 C          59.4948   89.1697    7.3102 C.3     1  UNL1        0.2103
@<TRIPOS>BOND
     1    27    28    1
     2    28    26    1
     3    26     1    1
     4     1     2    2
     5     1     3   am
     6     3     4    1
     7     4     5    1
     8     5     6   ar
     9     6     7   ar
    10     7     8    1
    11     7     9   ar
    12     9    22    1
    13    22    23    1
    14     9    10   ar
    15    10    14    1
    16    14    15   ar
    17    15    16   ar
    18    16    17   ar
    19    17    18    1
    20    17    19   ar
    21    19    20   ar
    22    20    21    1
    23    10    11   ar
    24    11    12    1
    25    12    13    2
    26    12     3   am
    27    11     5   ar
    28    20    14   ar
    29    23    24    1
    30    23    25    1
@<TRIPOS>MOLECULE
*****
 28 30 0 0 0
SMALL
GASTEIGER

@<TRIPOS>ATOM
      1 C          64.2847   91.5197   12.8924 C.2     1  UNL1        0.4113
      2 O          63.7913   92.1969   11.6483 O.2     1  UNL1       -0.2257
      3 N          64.0683   90.0475   13.0811 N.am    1  UNL1       -0.1863
      4 C          64.5032   89.2372   14.2662 C.3     1  UNL1        0.1503
      5 C          64.0828   87.8159   14.0354 C.ar    1  UNL1        0.0835
      6 N          64.2428   86.5750   14.8627 N.ar    1  UNL1       -0.2524
      7 C          63.7080   85.2658   14.3623 C.ar    1  UNL1        0.0563
      8 C          63.8680   84.0249   15.1896 C.3     1  UNL1        0.0518
      9 C          63.0133   85.1977   13.0346 C.ar    1  UNL1        0.0072
     10 C          62.8533   86.4388   12.2074 C.ar    1  UNL1        0.0049
     11 C          63.3880   87.7478   12.7077 C.ar    1  UNL1        0.0691
     12 C          63.3791   89.1270   12.1180 C.2     1  UNL1        0.2588
     13 O          62.7852   89.5171   10.7970 O.2     1  UNL1       -0.2694
     14 C          62.1585   86.3707   10.8797 C.ar    1  UNL1        0.0106
     15 C          62.8043   85.6538    9.7312 C.ar    1  UNL1        0.0017
     16 C          62.1096   85.5857    8.4035 C.ar    1  UNL1        0.0114
     17 C          60.7691   86.2344    8.2243 C.ar    1  UNL1        0.0585
     18 CL         60.0743   86.1663    6.8967 Cl      1  UNL1       -0.0822
     19 C          60.1233   86.9514    9.3729 C.ar    1  UNL1        0.0228
     20 C          60.8180   87.0195   10.7005 C.ar    1  UNL1        0.0585
     21 CL         60.1722   87.7363   11.8490 Cl      1  UNL1       -0.0822
     22 C          62.4785   83.8887   12.5343 C.3     1  UNL1        0.0934
     23 N          63.3951   82.9143   11.8557 N.3     1  UNL1       -0.3174
     24 H          63.7231   83.3123   10.9757 H       1  UNL1        0.1192
     25 H          62.8917   82.0469   11.6698 H       1  UNL1        0.1192
     26 O          64.9945   92.3148   13.9478 O.3     1  UNL1       -0.4343
     27 C          67.3371   91.6873   14.8800 C.3     1  UNL1        0.0513
     28 C          66.4878   92.4506   13.9071 C.3     1  UNL1        0.2103
@<TRIPOS>BOND
     1    27    28    1
     2    28    26    1
     3    26     1    1
     4     1     2    2
     5     1     3   am
     6     3     4    1
     7     4     5    1
     8     5     6   ar
     9     6     7   ar
    10     7     8    1
    11     7     9   ar
    12     9    22    1
    13    22    23    1
    14     9    10   ar
    15    10    14    1
    16    14    15   ar
    17    15    16   ar
    18    16    17   ar
    19    17    18    1
    20    17    19   ar
    21    19    20   ar
    22    20    21    1
    23    10    11   ar
    24    11    12    1
    25    12    13    2
    26    12     3   am
    27    11     5   ar
    28    20    14   ar
    29    23    24    1
    30    23    25    1
@<TRIPOS>MOLECULE
*****
 28 30 0 0 0
SMALL
GASTEIGER

@<TRIPOS>ATOM
      1 C          64.0317   84.1080   14.1782 C.2     1  UNL1        0.4113
      2 O          64.9110   84.3007   15.3780 O.2     1  UNL1       -0.2257
      3 N          63.5638   85.2970   13.3925 N.am    1  UNL1       -0.1863
      4 C          62.6859   85.2606   12.1768 C.3     1  UNL1        0.1503
      5 C          62.4711   86.6723   11.7176 C.ar    1  UNL1        0.0835
      6 N          61.6933   87.2475   10.5712 N.ar    1  UNL1       -0.2524
      7 C          61.6606   88.7318   10.3568 C.ar    1  UNL1        0.0563
      8 C          60.8828   89.3070    9.2104 C.3     1  UNL1        0.0518
      9 C          62.4058   89.6408   11.2887 C.ar    1  UNL1        0.0072
     10 C          63.1837   89.0655   12.4350 C.ar    1  UNL1        0.0049
     11 C          63.2163   87.5813   12.6495 C.ar    1  UNL1        0.0691
     12 C          63.8916   86.7313   13.6846 C.2     1  UNL1        0.2588
     13 O          64.7449   87.2284   14.8137 O.2     1  UNL1       -0.2694
     14 C          63.9289   89.9745   13.3669 C.ar    1  UNL1        0.0106
     15 C          65.1601   90.6883   12.8932 C.ar    1  UNL1        0.0017
     16 C          65.9053   91.5973   13.8251 C.ar    1  UNL1        0.0114
     17 C          65.4193   91.7925   15.2307 C.ar    1  UNL1        0.0585
     18 CL         66.1644   92.7015   16.1626 Cl      1  UNL1       -0.0822
     19 C          64.1879   91.0786   15.7044 C.ar    1  UNL1        0.0228
     20 C          63.4428   90.1696   14.7725 C.ar    1  UNL1        0.0585
     21 CL         62.2115   89.4558   15.2462 Cl      1  UNL1       -0.0822
     22 C          62.3732   91.1250   11.0742 C.3     1  UNL1        0.0934
     23 N          63.1867   91.7420    9.9754 N.3     1  UNL1       -0.3174
     24 H          64.1790   91.6205   10.1777 H       1  UNL1        0.1192
     25 H          62.9721   92.7371    9.9112 H       1  UNL1        0.1192
     26 O          63.6203   82.7263   13.7640 O.3     1  UNL1       -0.4343
     27 C          61.8611   80.8146   13.7406 C.3     1  UNL1        0.0513
     28 C          62.2803   82.1890   14.1711 C.3     1  UNL1        0.2103
@<TRIPOS>BOND
     1    27    28    1
     2    28    26    1
     3    26     1    1
     4     1     2    2
     5     1     3   am
     6     3     4    1
     7     4     5    1
     8     5     6   ar
     9     6     7   ar
    10     7     8    1
    11     7     9   ar
    12     9    22    1
    13    22    23    1
    14     9    10   ar
    15    10    14    1
    16    14    15   ar
    17    15    16   ar
    18    16    17   ar
    19    17    18    1
    20    17    19   ar
    21    19    20   ar
    22    20    21    1
    23    10    11   ar
    24    11    12    1
    25    12    13    2
    26    12     3   am
    27    11     5   ar
    28    20    14   ar
    29    23    24    1
    30    23    25    1
@<TRIPOS>MOLECULE
*****
 28 30 0 0 0
SMALL
GASTEIGER

@<TRIPOS>ATOM
      1 C          64.3861   90.7142   13.6814 C.2     1  UNL1        0.4113
      2 O          63.8305   91.6404   12.6405 O.2     1  UNL1       -0.2257
      3 N          64.1280   89.2395   13.5877 N.am    1  UNL1       -0.1863
      4 C          64.6158   88.1962   14.5487 C.3     1  UNL1        0.1503
      5 C          64.1261   86.8611   14.0714 C.ar    1  UNL1        0.0835
      6 N          64.2979   85.4750   14.6183 N.ar    1  UNL1       -0.2524
      7 C          63.6792   84.3069   13.9091 C.ar    1  UNL1        0.0563
      8 C          63.8509   82.9208   14.4559 C.3     1  UNL1        0.0518
      9 C          62.8887   84.5251   12.6531 C.ar    1  UNL1        0.0072
     10 C          62.7169   85.9113   12.1063 C.ar    1  UNL1        0.0049
     11 C          63.3357   87.0793   12.8154 C.ar    1  UNL1        0.0691
     12 C          63.3368   88.5492   12.5165 C.2     1  UNL1        0.2588
     13 O          62.6648   89.2123   11.3509 O.2     1  UNL1       -0.2694
     14 C          61.9265   86.1294   10.8503 C.ar    1  UNL1        0.0106
     15 C          60.6328   86.8869   10.9003 C.ar    1  UNL1        0.0017
     16 C          59.8423   87.1050    9.6443 C.ar    1  UNL1        0.0114
     17 C          60.3455   86.5657    8.3382 C.ar    1  UNL1        0.0585
     18 CL         59.5550   86.7839    7.0822 Cl      1  UNL1       -0.0822
     19 C          61.6393   85.8082    8.2881 C.ar    1  UNL1        0.0228
     20 C          62.4298   85.5901    9.5441 C.ar    1  UNL1        0.0585
     21 CL         63.7235   84.8326    9.4941 Cl      1  UNL1       -0.0822
     22 C          62.2700   83.3571   11.9439 C.3     1  UNL1        0.0934
     23 N          63.1433   82.2919   11.3501 N.3     1  UNL1       -0.3174
     24 H          63.6887   82.6872   10.5842 H       1  UNL1        0.1192
     25 H          62.5609   81.5328   10.9964 H       1  UNL1        0.1192
     26 O          65.1996   91.2626   14.8159 O.3     1  UNL1       -0.4343
     27 C          63.4500   90.7861   16.6766 C.3     1  UNL1        0.0513
     28 C          64.5290   91.6538   16.0994 C.3     1  UNL1        0.2103
@<TRIPOS>BOND
     1    27    28    1
     2    28    26    1
     3    26     1    1
     4     1     2    2
     5     1     3   am
     6     3     4    1
     7     4     5    1
     8     5     6   ar
     9     6     7   ar
    10     7     8    1
    11     7     9   ar
    12     9    22    1
    13    22    23    1
    14     9    10   ar
    15    10    14    1
    16    14    15   ar
    17    15    16   ar
    18    16    17   ar
    19    17    18    1
    20    17    19   ar
    21    19    20   ar
    22    20    21    1
    23    10    11   ar
    24    11    12    1
    25    12    13    2
    26    12     3   am
    27    11     5   ar
    28    20    14   ar
    29    23    24    1
    30    23    25    1
@<TRIPOS>MOLECULE
*****
 28 30 0 0 0
SMALL
GASTEIGER

@<TRIPOS>ATOM
      1 C          63.0834   83.0062   13.0619 C.2     1  UNL1        0.4113
      2 O          62.2179   82.4089   11.9923 O.2     1  UNL1       -0.2257
      3 N          63.2617   84.4936   13.1388 N.am    1  UNL1       -0.1863
      4 C          64.0918   85.2311   14.1472 C.3     1  UNL1        0.1503
      5 C          63.9843   86.6979   13.8524 C.ar    1  UNL1        0.0835
      6 N          64.5870   87.9015   14.5143 N.ar    1  UNL1       -0.2524
      7 C          64.2932   89.2742   13.9856 C.ar    1  UNL1        0.0563
      8 C          64.8958   90.4777   14.6475 C.3     1  UNL1        0.0518
      9 C          63.3966   89.4432   12.7949 C.ar    1  UNL1        0.0072
     10 C          62.7940   88.2395   12.1330 C.ar    1  UNL1        0.0049
     11 C          63.0878   86.8670   12.6617 C.ar    1  UNL1        0.0691
     12 C          62.6412   85.5046   12.2207 C.2     1  UNL1        0.2588
     13 O          61.7335   85.2057   11.0645 O.2     1  UNL1       -0.2694
     14 C          61.8974   88.4086   10.9423 C.ar    1  UNL1        0.0106
     15 C          62.3281   87.8952    9.6004 C.ar    1  UNL1        0.0017
     16 C          61.4316   88.0642    8.4097 C.ar    1  UNL1        0.0114
     17 C          60.1044   88.7466    8.5610 C.ar    1  UNL1        0.0585
     18 CL         59.2079   88.9156    7.3703 Cl      1  UNL1       -0.0822
     19 C          59.6737   89.2600    9.9031 C.ar    1  UNL1        0.0228
     20 C          60.5702   89.0910   11.0937 C.ar    1  UNL1        0.0585
     21 CL         60.1396   89.6043   12.4357 Cl      1  UNL1       -0.0822
     22 C          63.1028   90.8158   12.2662 C.3     1  UNL1        0.0934
     23 N          63.8539   91.3383   11.0776 N.3     1  UNL1       -0.3174
     24 H          64.8372   91.4563   11.3218 H       1  UNL1        0.1192
     25 H          63.4630   92.2376   10.7968 H       1  UNL1        0.1192
     26 O          63.7707   82.1161   14.0545 O.3     1  UNL1       -0.4343
     27 C          62.3337   79.9617   13.8455 C.3     1  UNL1        0.0513
     28 C          63.6770   80.6255   13.9161 C.3     1  UNL1        0.2103
@<TRIPOS>BOND
     1    27    28    1
     2    28    26    1
     3    26     1    1
     4     1     2    2
     5     1     3   am
     6     3     4    1
     7     4     5    1
     8     5     6   ar
     9     6     7   ar
    10     7     8    1
    11     7     9   ar
    12     9    22    1
    13    22    23    1
    14     9    10   ar
    15    10    14    1
    16    14    15   ar
    17    15    16   ar
    18    16    17   ar
    19    17    18    1
    20    17    19   ar
    21    19    20   ar
    22    20    21    1
    23    10    11   ar
    24    11    12    1
    25    12    13    2
    26    12     3   am
    27    11     5   ar
    28    20    14   ar
    29    23    24    1
    30    23    25    1
@<TRIPOS>MOLECULE
*****
 28 30 0 0 0
SMALL
GASTEIGER

@<TRIPOS>ATOM
      1 C          60.8005   88.7032    9.5527 C.2     1  UNL1        0.4113
      2 O          60.4231   89.6906   10.6169 O.2     1  UNL1       -0.2257
      3 N          61.5302   87.4455    9.9212 N.am    1  UNL1       -0.1863
      4 C          61.9708   86.3713    8.9715 C.3     1  UNL1        0.1503
      5 C          62.6603   85.3031    9.7674 C.ar    1  UNL1        0.0835
      6 N          63.2995   84.0070    9.3657 N.ar    1  UNL1       -0.2524
      7 C          63.9242   83.1247   10.4057 C.ar    1  UNL1        0.0563
      8 C          64.5633   81.8286   10.0040 C.3     1  UNL1        0.0518
      9 C          63.9097   83.5387   11.8473 C.ar    1  UNL1        0.0072
     10 C          63.2705   84.8350   12.2490 C.ar    1  UNL1        0.0049
     11 C          62.6459   85.7171   11.2091 C.ar    1  UNL1        0.0691
     12 C          61.9474   87.0412   11.3041 C.2     1  UNL1        0.2588
     13 O          61.7082   87.8235   12.5613 O.2     1  UNL1       -0.2694
     14 C          63.2560   85.2490   13.6907 C.ar    1  UNL1        0.0106
     15 C          64.1100   86.3930   14.1511 C.ar    1  UNL1        0.0017
     16 C          64.0955   86.8070   15.5928 C.ar    1  UNL1        0.0114
     17 C          63.2271   86.0770   16.5740 C.ar    1  UNL1        0.0585
     18 CL         63.2126   86.4910   18.0157 Cl      1  UNL1       -0.0822
     19 C          62.3731   84.9329   16.1136 C.ar    1  UNL1        0.0228
     20 C          62.3876   84.5189   14.6720 C.ar    1  UNL1        0.0585
     21 CL         61.5337   83.3749   14.2116 Cl      1  UNL1       -0.0822
     22 C          64.5344   82.6566   12.8873 C.3     1  UNL1        0.0934
     23 N          63.8767   81.3630   13.2668 N.3     1  UNL1       -0.3174
     24 H          62.9838   81.5559   13.7205 H       1  UNL1        0.1192
     25 H          64.4807   80.8501   13.9090 H       1  UNL1        0.1192
     26 O          60.4482   88.9735    8.1200 O.3     1  UNL1       -0.4343
     27 C          58.8818   86.9505    7.6685 C.3     1  UNL1        0.0513
     28 C          59.1826   88.4145    7.5405 C.3     1  UNL1        0.2103
@<TRIPOS>BOND
     1    27    28    1
     2    28    26    1
     3    26     1    1
     4     1     2    2
     5     1     3   am
     6     3     4    1
     7     4     5    1
     8     5     6   ar
     9     6     7   ar
    10     7     8    1
    11     7     9   ar
    12     9    22    1
    13    22    23    1
    14     9    10   ar
    15    10    14    1
    16    14    15   ar
    17    15    16   ar
    18    16    17   ar
    19    17    18    1
    20    17    19   ar
    21    19    20   ar
    22    20    21    1
    23    10    11   ar
    24    11    12    1
    25    12    13    2
    26    12     3   am
    27    11     5   ar
    28    20    14   ar
    29    23    24    1
    30    23    25    1
