@<TRIPOS>MOLECULE
*****
 40 42 0 0 0
SMALL
GASTEIGER

@<TRIPOS>ATOM
      1 C          60.8800   88.1289    8.9947 C.3     1  UNL1        0.2120
      2 O          62.1688   88.0408    9.7572 O.3     1  UNL1       -0.3763
      3 H          62.3649   88.9006   10.1612 H       1  UNL1        0.2107
      4 C          59.5913   88.2171    8.2322 C.3     1  UNL1        0.4226
      5 F          58.3026   88.3052    7.4698 F       1  UNL1       -0.1675
      6 F          60.1362   89.3718    7.4449 F       1  UNL1       -0.1675
      7 F          59.0465   87.0624    9.0196 F       1  UNL1       -0.1675
      8 C          61.0140   86.6876    8.6017 C.3     1  UNL1        0.1307
      9 N          61.8848   85.7687    9.4063 N.am    1  UNL1       -0.2733
     10 C          61.7187   85.6903   10.8950 C.2     1  UNL1        0.2499
     11 O          60.6817   86.5309   11.5792 O.2     1  UNL1       -0.2699
     12 C          62.5895   84.7714   11.6994 C.ar    1  UNL1        0.0641
     13 C          62.5851   83.2977   11.4194 C.ar    1  UNL1        0.0054
     14 C          63.4559   82.3788   12.2239 C.ar    1  UNL1        0.0002
     15 C          64.3313   82.9335   13.3084 C.ar    1  UNL1        0.0009
     16 C          64.3357   84.4071   13.5884 C.ar    1  UNL1        0.0115
     17 C          63.4648   85.3261   12.7839 C.ar    1  UNL1        0.0620
     18 CL         63.4693   86.7997   13.0639 Cl      1  UNL1       -0.0821
     19 C          62.8666   84.7312    7.2360 C.3     1  UNL1        0.0233
     20 C          62.9218   84.9281    8.7220 C.3     1  UNL1        0.0939
     21 C          60.7461   89.5703    9.3878 C.3     1  UNL1        0.1269
     22 N          61.9652   90.3651    9.7510 N.am    1  UNL1       -0.2982
     23 C          62.4285   90.4185   11.1767 C.2     1  UNL1        0.2502
     24 O          61.6725   89.6772   12.2392 O.2     1  UNL1       -0.2700
     25 H          62.4614   90.8517    9.0536 H       1  UNL1        0.1498
     26 C          63.6476   91.2133   11.5399 C.ar    1  UNL1        0.1053
     27 C          64.2735   92.2959   10.7114 C.ar    1  UNL1        0.1278
     28 N          65.4677   92.8167   11.4548 N.ar    1  UNL1       -0.1622
     29 N          65.5799   92.0561   12.7427 N.ar    1  UNL1       -0.2163
     30 C          64.4550   91.0651   12.7953 C.ar    1  UNL1        0.1327
     31 N          64.1849   90.0961   13.9080 N.pl3   1  UNL1       -0.3424
     32 H          64.7750   90.0742   14.6957 H       1  UNL1        0.1437
     33 H          63.4175   89.4821   13.8506 H       1  UNL1        0.1437
     34 C          66.6322   92.2520   13.7937 C.ar    1  UNL1        0.0843
     35 C          68.0672   91.9436   13.4848 C.ar    1  UNL1        0.0215
     36 C          69.1194   92.1394   14.5357 C.ar    1  UNL1        0.0312
     37 C          68.7365   92.6437   15.8955 C.ar    1  UNL1        0.1402
     38 F          69.7888   92.8396   16.9464 F       1  UNL1       -0.2042
     39 C          67.3015   92.9521   16.2044 C.ar    1  UNL1        0.0312
     40 C          66.2493   92.7562   15.1535 C.ar    1  UNL1        0.0215
@<TRIPOS>BOND
     1    19    20    1
     2    20     9    1
     3     9     8    1
     4     8     1    1
     5     1     2    1
     6     1    21    1
     7    21    22    1
     8    22    23   am
     9    23    24    2
    10    23    26    1
    11    26    27   ar
    12    27    28   ar
    13    28    29   ar
    14    29    34    1
    15    34    35   ar
    16    35    36   ar
    17    36    37   ar
    18    37    38    1
    19    37    39   ar
    20    39    40   ar
    21    29    30   ar
    22    30    31    1
    23     1     4    1
    24     4     5    1
    25     4     6    1
    26     4     7    1
    27     9    10   am
    28    10    11    2
    29    10    12    1
    30    12    13   ar
    31    13    14   ar
    32    14    15   ar
    33    15    16   ar
    34    16    17   ar
    35    17    18    1
    36    30    26   ar
    37    17    12   ar
    38    40    34   ar
    39     2     3    1
    40    22    25    1
    41    31    32    1
    42    31    33    1
@<TRIPOS>MOLECULE
*****
 40 42 0 0 0
SMALL
GASTEIGER

@<TRIPOS>ATOM
      1 C          63.8119   90.7137   14.4541 C.3     1  UNL1        0.2120
      2 O          62.6976   90.1059   13.6547 O.3     1  UNL1       -0.3763
      3 H          62.4881   89.2272   14.0080 H       1  UNL1        0.2107
      4 C          64.9262   91.3214   15.2535 C.3     1  UNL1        0.4226
      5 F          66.0404   91.9291   16.0528 F       1  UNL1       -0.1675
      6 F          63.9219   91.9889   16.1457 F       1  UNL1       -0.1675
      7 F          65.9303   90.6540   14.3612 F       1  UNL1       -0.1675
      8 C          63.7615   91.9400   13.5919 C.3     1  UNL1        0.1307
      9 N          64.6226   92.0317   12.3671 N.am    1  UNL1       -0.2733
     10 C          65.7456   93.0245   12.3124 C.2     1  UNL1        0.2499
     11 O          66.0076   93.9258   13.4824 O.2     1  UNL1       -0.2699
     12 C          66.6067   93.1161   11.0875 C.ar    1  UNL1        0.0641
     13 C          67.6405   92.0634   10.8171 C.ar    1  UNL1        0.0054
     14 C          68.5015   92.1550    9.5923 C.ar    1  UNL1        0.0002
     15 C          68.3289   93.2993    8.6378 C.ar    1  UNL1        0.0009
     16 C          67.2951   94.3519    8.9084 C.ar    1  UNL1        0.0115
     17 C          66.4340   94.2604   10.1332 C.ar    1  UNL1        0.0620
     18 CL         65.4002   95.3131   10.4037 Cl      1  UNL1       -0.0821
     19 C          63.1402   91.3366   10.3498 C.3     1  UNL1        0.0233
     20 C          64.3607   91.1303   11.1970 C.3     1  UNL1        0.0939
     21 C          63.8623   89.4872   15.3162 C.3     1  UNL1        0.1269
     22 N          64.2533   88.1673   14.7206 N.am    1  UNL1       -0.2982
     23 C          63.8314   86.8903   15.3849 C.2     1  UNL1        0.2502
     24 O          63.0186   86.9332   16.6449 O.2     1  UNL1       -0.2700
     25 H          64.7867   88.1391   13.8937 H       1  UNL1        0.1498
     26 C          64.2224   85.5703   14.7893 C.ar    1  UNL1        0.1053
     27 C          65.4100   84.7426   15.1827 C.ar    1  UNL1        0.1278
     28 N          65.4161   83.5070   14.3322 N.ar    1  UNL1       -0.1622
     29 N          64.2323   83.5710   13.4132 N.ar    1  UNL1       -0.2163
     30 C          63.4946   84.8462   13.6957 C.ar    1  UNL1        0.1327
     31 N          62.2479   85.3150   13.0058 N.pl3   1  UNL1       -0.3424
     32 H          61.8422   84.7665   12.2960 H       1  UNL1        0.1437
     33 H          61.8354   86.1712   13.2628 H       1  UNL1        0.1437
     34 C          63.8528   82.5408   12.3911 C.ar    1  UNL1        0.0843
     35 C          64.1774   82.7649   10.9440 C.ar    1  UNL1        0.0215
     36 C          63.7979   81.7347    9.9220 C.ar    1  UNL1        0.0312
     37 C          63.0937   80.4803   10.3472 C.ar    1  UNL1        0.1402
     38 F          62.7142   79.4500    9.3251 F       1  UNL1       -0.2042
     39 C          62.7691   80.2562   11.7943 C.ar    1  UNL1        0.0312
     40 C          63.1486   81.2864   12.8163 C.ar    1  UNL1        0.0215
@<TRIPOS>BOND
     1    19    20    1
     2    20     9    1
     3     9     8    1
     4     8     1    1
     5     1     2    1
     6     1    21    1
     7    21    22    1
     8    22    23   am
     9    23    24    2
    10    23    26    1
    11    26    27   ar
    12    27    28   ar
    13    28    29   ar
    14    29    34    1
    15    34    35   ar
    16    35    36   ar
    17    36    37   ar
    18    37    38    1
    19    37    39   ar
    20    39    40   ar
    21    29    30   ar
    22    30    31    1
    23     1     4    1
    24     4     5    1
    25     4     6    1
    26     4     7    1
    27     9    10   am
    28    10    11    2
    29    10    12    1
    30    12    13   ar
    31    13    14   ar
    32    14    15   ar
    33    15    16   ar
    34    16    17   ar
    35    17    18    1
    36    30    26   ar
    37    17    12   ar
    38    40    34   ar
    39     2     3    1
    40    22    25    1
    41    31    32    1
    42    31    33    1
@<TRIPOS>MOLECULE
*****
 40 42 0 0 0
SMALL
GASTEIGER

@<TRIPOS>ATOM
      1 C          65.0016   91.2050   15.1971 C.3     1  UNL1        0.2120
      2 O          65.6334   90.4258   14.0819 O.3     1  UNL1       -0.3763
      3 H          65.0622   89.6783   13.8456 H       1  UNL1        0.2107
      4 C          64.3697   91.9841   16.3123 C.3     1  UNL1        0.4226
      5 F          63.7379   92.7632   17.4275 F       1  UNL1       -0.1675
      6 F          63.0811   91.2471   16.0969 F       1  UNL1       -0.1675
      7 F          65.6584   92.7211   16.5276 F       1  UNL1       -0.1675
      8 C          66.1618   92.1555   15.1904 C.3     1  UNL1        0.1307
      9 N          66.8830   92.4496   13.9083 N.am    1  UNL1       -0.2733
     10 C          66.1071   92.6524   12.6408 C.2     1  UNL1        0.2499
     11 O          64.6099   92.5611   12.6551 O.2     1  UNL1       -0.2699
     12 C          66.8283   92.9465   11.3588 C.ar    1  UNL1        0.0641
     13 C          67.5921   91.8599   10.6617 C.ar    1  UNL1        0.0054
     14 C          68.3133   92.1540    9.3797 C.ar    1  UNL1        0.0002
     15 C          68.2708   93.5347    8.7949 C.ar    1  UNL1        0.0009
     16 C          67.5070   94.6212    9.4922 C.ar    1  UNL1        0.0115
     17 C          66.7858   94.3271   10.7741 C.ar    1  UNL1        0.0620
     18 CL         66.0220   95.4137   11.4713 Cl      1  UNL1       -0.0821
     19 C          69.1315   92.7451   15.1761 C.3     1  UNL1        0.0233
     20 C          68.3802   92.5409   13.8940 C.3     1  UNL1        0.0939
     21 C          63.8413   90.2544   15.2038 C.3     1  UNL1        0.1269
     22 N          64.0844   88.7743   15.2179 N.am    1  UNL1       -0.2982
     23 C          63.8627   87.9659   13.9740 C.2     1  UNL1        0.2502
     24 O          63.3979   88.6376   12.7159 O.2     1  UNL1       -0.2700
     25 H          64.3894   88.3334   16.0436 H       1  UNL1        0.1498
     26 C          64.1058   86.4858   13.9881 C.ar    1  UNL1        0.1053
     27 C          65.0338   85.7535   14.9115 C.ar    1  UNL1        0.1278
     28 N          64.9651   84.2932   14.5754 N.ar    1  UNL1       -0.1622
     29 N          63.9947   84.1231   13.4443 N.ar    1  UNL1       -0.2163
     30 C          63.4636   85.4781   13.0813 C.ar    1  UNL1        0.1327
     31 N          62.4656   85.7737   12.0013 N.pl3   1  UNL1       -0.3424
     32 H          62.0990   85.0407   11.4558 H       1  UNL1        0.1437
     33 H          62.1771   86.7007   11.8379 H       1  UNL1        0.1437
     34 C          63.6210   82.8256   12.7908 C.ar    1  UNL1        0.0843
     35 C          62.9555   81.7464   13.5925 C.ar    1  UNL1        0.0215
     36 C          62.5818   80.4491   12.9390 C.ar    1  UNL1        0.0312
     37 C          62.8735   80.2308   11.4839 C.ar    1  UNL1        0.1402
     38 F          62.4998   78.9333   10.8305 F       1  UNL1       -0.2042
     39 C          63.5390   81.3099   10.6823 C.ar    1  UNL1        0.0312
     40 C          63.9127   82.6073   11.3358 C.ar    1  UNL1        0.0215
@<TRIPOS>BOND
     1    19    20    1
     2    20     9    1
     3     9     8    1
     4     8     1    1
     5     1     2    1
     6     1    21    1
     7    21    22    1
     8    22    23   am
     9    23    24    2
    10    23    26    1
    11    26    27   ar
    12    27    28   ar
    13    28    29   ar
    14    29    34    1
    15    34    35   ar
    16    35    36   ar
    17    36    37   ar
    18    37    38    1
    19    37    39   ar
    20    39    40   ar
    21    29    30   ar
    22    30    31    1
    23     1     4    1
    24     4     5    1
    25     4     6    1
    26     4     7    1
    27     9    10   am
    28    10    11    2
    29    10    12    1
    30    12    13   ar
    31    13    14   ar
    32    14    15   ar
    33    15    16   ar
    34    16    17   ar
    35    17    18    1
    36    30    26   ar
    37    17    12   ar
    38    40    34   ar
    39     2     3    1
    40    22    25    1
    41    31    32    1
    42    31    33    1
@<TRIPOS>MOLECULE
*****
 40 42 0 0 0
SMALL
GASTEIGER

@<TRIPOS>ATOM
      1 C          63.7132   90.5507   14.3801 C.3     1  UNL1        0.2120
      2 O          63.7894   91.5688   15.4791 O.3     1  UNL1       -0.3763
      3 H          63.8337   91.1167   16.3362 H       1  UNL1        0.2107
      4 C          63.6370   89.5326   13.2812 C.3     1  UNL1        0.4226
      5 F          63.5609   88.5146   12.1823 F       1  UNL1       -0.1675
      6 F          62.2089   89.9143   13.0267 F       1  UNL1       -0.1675
      7 F          65.0652   89.1510   13.5357 F       1  UNL1       -0.1675
      8 C          63.6676   91.6521   13.3630 C.3     1  UNL1        0.1307
      9 N          64.9285   92.0992   12.6845 N.am    1  UNL1       -0.2733
     10 C          64.9473   92.3092   11.1995 C.2     1  UNL1        0.2499
     11 O          63.7050   92.0722   10.3927 O.2     1  UNL1       -0.2699
     12 C          66.2082   92.7563   10.5211 C.ar    1  UNL1        0.0641
     13 C          67.2721   91.7553   10.1806 C.ar    1  UNL1        0.0054
     14 C          68.5331   92.2023    9.5022 C.ar    1  UNL1        0.0002
     15 C          68.7301   93.6505    9.1643 C.ar    1  UNL1        0.0009
     16 C          67.6661   94.6515    9.5049 C.ar    1  UNL1        0.0115
     17 C          66.4051   94.2044   10.1833 C.ar    1  UNL1        0.0620
     18 CL         65.3412   95.2055   10.5238 Cl      1  UNL1       -0.0821
     19 C          66.4823   93.7117   14.0020 C.3     1  UNL1        0.0233
     20 C          66.1707   92.3362   13.4913 C.3     1  UNL1        0.0939
     21 C          63.7589   89.4492   15.3974 C.3     1  UNL1        0.1269
     22 N          63.9673   88.0304   14.9576 N.am    1  UNL1       -0.2982
     23 C          63.4464   86.9011   15.7963 C.2     1  UNL1        0.2502
     24 O          62.7171   87.1906   17.0746 O.2     1  UNL1       -0.2700
     25 H          64.4460   87.8404   14.1186 H       1  UNL1        0.1498
     26 C          63.6548   85.4822   15.3565 C.ar    1  UNL1        0.1053
     27 C          64.2647   84.3851   16.1778 C.ar    1  UNL1        0.1278
     28 N          64.2767   83.1362   15.3472 N.ar    1  UNL1       -0.1622
     29 N          63.6744   83.4613   14.0125 N.ar    1  UNL1       -0.2163
     30 C          63.2900   84.9113   14.0183 C.ar    1  UNL1        0.1327
     31 N          62.6528   85.6590   12.8848 N.pl3   1  UNL1       -0.3424
     32 H          62.4505   85.1945   12.0407 H       1  UNL1        0.1437
     33 H          62.4368   86.6143   12.9850 H       1  UNL1        0.1437
     34 C          63.4889   82.5046   12.8721 C.ar    1  UNL1        0.0843
     35 C          62.8243   81.1802   13.1048 C.ar    1  UNL1        0.0215
     36 C          62.6389   80.2235   11.9645 C.ar    1  UNL1        0.0312
     37 C          63.1181   80.5912   10.5915 C.ar    1  UNL1        0.1402
     38 F          62.9326   79.6345    9.4512 F       1  UNL1       -0.2042
     39 C          63.7828   81.9156   10.3588 C.ar    1  UNL1        0.0312
     40 C          63.9682   82.8723   11.4991 C.ar    1  UNL1        0.0215
@<TRIPOS>BOND
     1    19    20    1
     2    20     9    1
     3     9     8    1
     4     8     1    1
     5     1     2    1
     6     1    21    1
     7    21    22    1
     8    22    23   am
     9    23    24    2
    10    23    26    1
    11    26    27   ar
    12    27    28   ar
    13    28    29   ar
    14    29    34    1
    15    34    35   ar
    16    35    36   ar
    17    36    37   ar
    18    37    38    1
    19    37    39   ar
    20    39    40   ar
    21    29    30   ar
    22    30    31    1
    23     1     4    1
    24     4     5    1
    25     4     6    1
    26     4     7    1
    27     9    10   am
    28    10    11    2
    29    10    12    1
    30    12    13   ar
    31    13    14   ar
    32    14    15   ar
    33    15    16   ar
    34    16    17   ar
    35    17    18    1
    36    30    26   ar
    37    17    12   ar
    38    40    34   ar
    39     2     3    1
    40    22    25    1
    41    31    32    1
    42    31    33    1
@<TRIPOS>MOLECULE
*****
 40 42 0 0 0
SMALL
GASTEIGER

@<TRIPOS>ATOM
      1 C          62.9446   84.2884   15.3635 C.3     1  UNL1        0.2120
      2 O          61.6187   84.8962   15.7137 O.3     1  UNL1       -0.3763
      3 H          61.7517   85.6212   16.3442 H       1  UNL1        0.2107
      4 C          64.2705   83.6807   15.0133 C.3     1  UNL1        0.4226
      5 F          65.5963   83.0730   14.6631 F       1  UNL1       -0.1675
      6 F          63.8021   82.3562   15.5388 F       1  UNL1       -0.1675
      7 F          64.7388   85.0053   14.4878 F       1  UNL1       -0.1675
      8 C          62.2576   83.3142   14.4532 C.3     1  UNL1        0.1307
      9 N          62.3882   83.4573   12.9657 N.am    1  UNL1       -0.2733
     10 C          62.4422   84.8219   12.3454 C.2     1  UNL1        0.2499
     11 O          62.3656   86.0435   13.2125 O.2     1  UNL1       -0.2699
     12 C          62.5728   84.9649   10.8579 C.ar    1  UNL1        0.0641
     13 C          63.5633   84.1246   10.1077 C.ar    1  UNL1        0.0054
     14 C          63.6939   84.2676    8.6203 C.ar    1  UNL1        0.0002
     15 C          62.8339   85.2510    7.8830 C.ar    1  UNL1        0.0009
     16 C          61.8435   86.0913    8.6333 C.ar    1  UNL1        0.0115
     17 C          61.7129   85.9483   10.1207 C.ar    1  UNL1        0.0620
     18 CL         60.7224   86.7887   10.8709 Cl      1  UNL1       -0.0821
     19 C          62.7077   80.8909   12.7172 C.3     1  UNL1        0.0233
     20 C          62.4648   82.2357   12.0986 C.3     1  UNL1        0.0939
     21 C          63.6316   85.2628   16.2739 C.3     1  UNL1        0.1269
     22 N          63.9893   86.6314   15.7750 N.am    1  UNL1       -0.2982
     23 C          63.2114   87.8264   16.2407 C.2     1  UNL1        0.2502
     24 O          62.0760   87.6529   17.2054 O.2     1  UNL1       -0.2700
     25 H          64.7345   86.7453   15.1418 H       1  UNL1        0.1498
     26 C          63.5691   89.1951   15.7418 C.ar    1  UNL1        0.1053
     27 C          63.5398   90.4618   16.5447 C.ar    1  UNL1        0.1278
     28 N          63.9714   91.5869   15.6515 N.ar    1  UNL1       -0.1622
     29 N          64.2675   91.0156   14.2966 N.ar    1  UNL1       -0.2163
     30 C          64.0189   89.5373   14.3524 C.ar    1  UNL1        0.1327
     31 N          64.1900   88.5711   13.2179 N.pl3   1  UNL1       -0.3424
     32 H          64.4915   88.8935   12.3379 H       1  UNL1        0.1437
     33 H          64.0008   87.6144   13.3533 H       1  UNL1        0.1437
     34 C          64.7309   91.7870   13.0965 C.ar    1  UNL1        0.0843
     35 C          65.8350   92.7932   13.2322 C.ar    1  UNL1        0.0215
     36 C          66.2984   93.5646   12.0321 C.ar    1  UNL1        0.0312
     37 C          65.6577   93.3297   10.6963 C.ar    1  UNL1        0.1402
     38 F          66.1211   94.1012    9.4962 F       1  UNL1       -0.2042
     39 C          64.5536   92.3235   10.5606 C.ar    1  UNL1        0.0312
     40 C          64.0902   91.5521   11.7607 C.ar    1  UNL1        0.0215
@<TRIPOS>BOND
     1    19    20    1
     2    20     9    1
     3     9     8    1
     4     8     1    1
     5     1     2    1
     6     1    21    1
     7    21    22    1
     8    22    23   am
     9    23    24    2
    10    23    26    1
    11    26    27   ar
    12    27    28   ar
    13    28    29   ar
    14    29    34    1
    15    34    35   ar
    16    35    36   ar
    17    36    37   ar
    18    37    38    1
    19    37    39   ar
    20    39    40   ar
    21    29    30   ar
    22    30    31    1
    23     1     4    1
    24     4     5    1
    25     4     6    1
    26     4     7    1
    27     9    10   am
    28    10    11    2
    29    10    12    1
    30    12    13   ar
    31    13    14   ar
    32    14    15   ar
    33    15    16   ar
    34    16    17   ar
    35    17    18    1
    36    30    26   ar
    37    17    12   ar
    38    40    34   ar
    39     2     3    1
    40    22    25    1
    41    31    32    1
    42    31    33    1
@<TRIPOS>MOLECULE
*****
 40 42 0 0 0
SMALL
GASTEIGER

@<TRIPOS>ATOM
      1 C          63.1859   90.2262   12.9085 C.3     1  UNL1        0.2120
      2 O          62.2773   89.0429   12.7519 O.3     1  UNL1       -0.3763
      3 H          62.6282   88.2961   13.2619 H       1  UNL1        0.2107
      4 C          64.0945   91.4094   13.0651 C.3     1  UNL1        0.4226
      5 F          65.0030   92.5926   13.2217 F       1  UNL1       -0.1675
      6 F          63.9755   91.3032   14.5566 F       1  UNL1       -0.1675
      7 F          64.2133   91.5155   11.5736 F       1  UNL1       -0.1675
      8 C          62.2893   91.0327   12.0167 C.3     1  UNL1        0.1307
      9 N          61.2806   90.3435   11.1461 N.am    1  UNL1       -0.2733
     10 C          61.7378   89.4673   10.0178 C.2     1  UNL1        0.2499
     11 O          63.2036   89.2801    9.7599 O.2     1  UNL1       -0.2699
     12 C          60.7292   88.7782    9.1473 C.ar    1  UNL1        0.0641
     13 C          60.1333   89.4991    7.9745 C.ar    1  UNL1        0.0054
     14 C          59.1247   88.8100    7.1040 C.ar    1  UNL1        0.0002
     15 C          58.7118   87.3999    7.4062 C.ar    1  UNL1        0.0009
     16 C          59.3077   86.6791    8.5790 C.ar    1  UNL1        0.0115
     17 C          60.3164   87.3682    9.4495 C.ar    1  UNL1        0.0620
     18 CL         60.9122   86.6472   10.6222 Cl      1  UNL1       -0.0821
     19 C          59.0909   89.5979   12.3290 C.3     1  UNL1        0.0233
     20 C          59.8148   90.5307   11.4039 C.3     1  UNL1        0.0939
     21 C          64.0826   89.4196   13.8004 C.3     1  UNL1        0.1269
     22 N          64.1202   87.9255   13.6728 N.am    1  UNL1       -0.2982
     23 C          63.8366   87.0634   14.8671 C.2     1  UNL1        0.2502
     24 O          63.5153   87.6953   16.1890 O.2     1  UNL1       -0.2700
     25 H          64.3311   87.5107   12.8052 H       1  UNL1        0.1498
     26 C          63.8742   85.5693   14.7394 C.ar    1  UNL1        0.1053
     27 C          64.3165   84.6047   15.7996 C.ar    1  UNL1        0.1278
     28 N          64.1918   83.2167   15.2447 N.ar    1  UNL1       -0.1622
     29 N          63.6724   83.3235   13.8415 N.ar    1  UNL1       -0.2163
     30 C          63.4762   84.7775   13.5293 C.ar    1  UNL1        0.1327
     31 N          62.9706   85.3407   12.2342 N.pl3   1  UNL1       -0.3424
     32 H          62.7338   84.7366   11.4938 H       1  UNL1        0.1437
     33 H          62.8756   86.3145   12.1247 H       1  UNL1        0.1437
     34 C          63.3976   82.1775   12.9135 C.ar    1  UNL1        0.0843
     35 C          63.6978   82.3091   11.4497 C.ar    1  UNL1        0.0215
     36 C          63.4229   81.1632   10.5218 C.ar    1  UNL1        0.0312
     37 C          62.8479   79.8855   11.0575 C.ar    1  UNL1        0.1402
     38 F          62.5731   78.7395   10.1295 F       1  UNL1       -0.2042
     39 C          62.5478   79.7539   12.5212 C.ar    1  UNL1        0.0312
     40 C          62.8226   80.8999   13.4492 C.ar    1  UNL1        0.0215
@<TRIPOS>BOND
     1    19    20    1
     2    20     9    1
     3     9     8    1
     4     8     1    1
     5     1     2    1
     6     1    21    1
     7    21    22    1
     8    22    23   am
     9    23    24    2
    10    23    26    1
    11    26    27   ar
    12    27    28   ar
    13    28    29   ar
    14    29    34    1
    15    34    35   ar
    16    35    36   ar
    17    36    37   ar
    18    37    38    1
    19    37    39   ar
    20    39    40   ar
    21    29    30   ar
    22    30    31    1
    23     1     4    1
    24     4     5    1
    25     4     6    1
    26     4     7    1
    27     9    10   am
    28    10    11    2
    29    10    12    1
    30    12    13   ar
    31    13    14   ar
    32    14    15   ar
    33    15    16   ar
    34    16    17   ar
    35    17    18    1
    36    30    26   ar
    37    17    12   ar
    38    40    34   ar
    39     2     3    1
    40    22    25    1
    41    31    32    1
    42    31    33    1
@<TRIPOS>MOLECULE
*****
 40 42 0 0 0
SMALL
GASTEIGER

@<TRIPOS>ATOM
      1 C          59.4395   91.4592    4.9887 C.3     1  UNL1        0.2120
      2 O          60.8886   91.2812    5.3327 O.3     1  UNL1       -0.3763
      3 H          61.0003   90.4697    5.8522 H       1  UNL1        0.2107
      4 C          57.9903   91.6372    4.6446 C.3     1  UNL1        0.4226
      5 F          56.5413   91.8151    4.3006 F       1  UNL1       -0.1675
      6 F          58.3776   92.2624    3.3373 F       1  UNL1       -0.1675
      7 F          57.6031   91.0119    5.9520 F       1  UNL1       -0.1675
      8 C          59.7686   92.7272    4.2582 C.3     1  UNL1        0.1307
      9 N          60.7177   92.6990    3.0969 N.am    1  UNL1       -0.2733
     10 C          60.7950   93.8702    2.1629 C.2     1  UNL1        0.2499
     11 O          59.9232   95.0695    2.3901 O.2     1  UNL1       -0.2699
     12 C          61.7440   93.8420    1.0017 C.ar    1  UNL1        0.0641
     13 C          63.0806   94.5144    1.1089 C.ar    1  UNL1        0.0054
     14 C          64.0297   94.4861   -0.0524 C.ar    1  UNL1        0.0002
     15 C          63.6422   93.7855   -1.3209 C.ar    1  UNL1        0.0009
     16 C          62.3056   93.1131   -1.4280 C.ar    1  UNL1        0.0115
     17 C          61.3565   93.1413   -0.2668 C.ar    1  UNL1        0.0620
     18 CL         60.0200   92.4689   -0.3740 Cl      1  UNL1       -0.0821
     19 C          63.0744   91.6064    3.0525 C.3     1  UNL1        0.0233
     20 C          61.5894   91.4997    2.8697 C.3     1  UNL1        0.0939
     21 C          59.1103   90.1911    5.7192 C.3     1  UNL1        0.1269
     22 N          60.0077   89.7039    6.8179 N.am    1  UNL1       -0.2982
     23 C          59.5940   88.5344    7.6612 C.2     1  UNL1        0.2502
     24 O          58.2828   87.8521    7.4057 O.2     1  UNL1       -0.2700
     25 H          60.8683   90.1517    6.9855 H       1  UNL1        0.1498
     26 C          60.4914   88.0472    8.7599 C.ar    1  UNL1        0.1053
     27 C          61.0234   88.8715    9.8947 C.ar    1  UNL1        0.1278
     28 N          61.8752   87.9839   10.7528 N.ar    1  UNL1       -0.1622
     29 N          61.8698   86.6110   10.1485 N.ar    1  UNL1       -0.2163
     30 C          61.0145   86.6501    8.9168 C.ar    1  UNL1        0.1327
     31 N          60.7320   85.4950    8.0025 N.pl3   1  UNL1       -0.3424
     32 H          61.1235   84.6114    8.1903 H       1  UNL1        0.1437
     33 H          60.1551   85.6205    7.2147 H       1  UNL1        0.1437
     34 C          62.5926   85.4098   10.6822 C.ar    1  UNL1        0.0843
     35 C          63.3364   84.5047    9.7455 C.ar    1  UNL1        0.0215
     36 C          64.0592   83.3036   10.2792 C.ar    1  UNL1        0.0312
     37 C          64.0383   83.0077   11.7496 C.ar    1  UNL1        0.1402
     38 F          64.7611   81.8065   12.2833 F       1  UNL1       -0.2042
     39 C          63.2945   83.9128   12.6863 C.ar    1  UNL1        0.0312
     40 C          62.5717   85.1139   12.1526 C.ar    1  UNL1        0.0215
@<TRIPOS>BOND
     1    19    20    1
     2    20     9    1
     3     9     8    1
     4     8     1    1
     5     1     2    1
     6     1    21    1
     7    21    22    1
     8    22    23   am
     9    23    24    2
    10    23    26    1
    11    26    27   ar
    12    27    28   ar
    13    28    29   ar
    14    29    34    1
    15    34    35   ar
    16    35    36   ar
    17    36    37   ar
    18    37    38    1
    19    37    39   ar
    20    39    40   ar
    21    29    30   ar
    22    30    31    1
    23     1     4    1
    24     4     5    1
    25     4     6    1
    26     4     7    1
    27     9    10   am
    28    10    11    2
    29    10    12    1
    30    12    13   ar
    31    13    14   ar
    32    14    15   ar
    33    15    16   ar
    34    16    17   ar
    35    17    18    1
    36    30    26   ar
    37    17    12   ar
    38    40    34   ar
    39     2     3    1
    40    22    25    1
    41    31    32    1
    42    31    33    1
@<TRIPOS>MOLECULE
*****
 40 42 0 0 0
SMALL
GASTEIGER

@<TRIPOS>ATOM
      1 C          60.7610   93.9133    1.1384 C.3     1  UNL1        0.2120
      2 O          60.3895   95.2473    1.7149 O.3     1  UNL1       -0.3763
      3 H          59.4380   95.2647    1.9028 H       1  UNL1        0.2107
      4 C          61.1324   92.5792    0.5618 C.3     1  UNL1        0.4226
      5 F          61.5039   91.2453   -0.0146 F       1  UNL1       -0.1675
      6 F          60.2113   92.8234   -0.5966 F       1  UNL1       -0.1675
      7 F          62.0536   92.3351    1.7203 F       1  UNL1       -0.1675
      8 C          62.1901   94.3564    1.0339 C.3     1  UNL1        0.1307
      9 N          62.7030   94.9385   -0.2499 N.am    1  UNL1       -0.2733
     10 C          63.9920   94.4433   -0.8359 C.2     1  UNL1        0.2499
     11 O          64.7681   93.3660   -0.1380 O.2     1  UNL1       -0.2699
     12 C          64.5048   95.0254   -2.1197 C.ar    1  UNL1        0.0641
     13 C          65.3374   96.2729   -2.0978 C.ar    1  UNL1        0.0054
     14 C          65.8502   96.8550   -3.3816 C.ar    1  UNL1        0.0002
     15 C          65.5303   96.1896   -4.6874 C.ar    1  UNL1        0.0009
     16 C          64.6977   94.9421   -4.7092 C.ar    1  UNL1        0.0115
     17 C          64.1849   94.3599   -3.4254 C.ar    1  UNL1        0.0620
     18 CL         63.3523   93.1124   -3.4473 Cl      1  UNL1       -0.0821
     19 C          60.9119   95.6531   -1.9911 C.3     1  UNL1        0.0233
     20 C          61.9268   96.0158   -0.9478 C.3     1  UNL1        0.0939
     21 C          59.3317   93.4702    1.2428 C.3     1  UNL1        0.1269
     22 N          58.9422   92.4237    2.2443 N.am    1  UNL1       -0.2982
     23 C          59.1447   92.6752    3.7092 C.2     1  UNL1        0.2502
     24 O          59.7368   93.9732    4.1724 O.2     1  UNL1       -0.2700
     25 H          58.5536   91.5718    1.9403 H       1  UNL1        0.1498
     26 C          58.7552   91.6288    4.7107 C.ar    1  UNL1        0.1053
     27 C          57.3547   91.2636    5.1050 C.ar    1  UNL1        0.1278
     28 N          57.4317   90.1729    6.1318 N.ar    1  UNL1       -0.1622
     29 N          58.8797   89.8639    6.3722 N.ar    1  UNL1       -0.2163
     30 C          59.6977   90.7638    5.4939 C.ar    1  UNL1        0.1327
     31 N          61.1952   90.7933    5.4131 N.pl3   1  UNL1       -0.3424
     32 H          61.7304   90.1831    5.9702 H       1  UNL1        0.1437
     33 H          61.6429   91.4230    4.8029 H       1  UNL1        0.1437
     34 C          59.4158   88.8357    7.3238 C.ar    1  UNL1        0.0843
     35 C          60.1188   89.2675    8.5766 C.ar    1  UNL1        0.0215
     36 C          60.6548   88.2393    9.5281 C.ar    1  UNL1        0.0312
     37 C          60.4878   86.7793    9.2269 C.ar    1  UNL1        0.1402
     38 F          61.0238   85.7511   10.1785 F       1  UNL1       -0.2042
     39 C          59.7848   86.3476    7.9742 C.ar    1  UNL1        0.0312
     40 C          59.2488   87.3758    7.0227 C.ar    1  UNL1        0.0215
@<TRIPOS>BOND
     1    19    20    1
     2    20     9    1
     3     9     8    1
     4     8     1    1
     5     1     2    1
     6     1    21    1
     7    21    22    1
     8    22    23   am
     9    23    24    2
    10    23    26    1
    11    26    27   ar
    12    27    28   ar
    13    28    29   ar
    14    29    34    1
    15    34    35   ar
    16    35    36   ar
    17    36    37   ar
    18    37    38    1
    19    37    39   ar
    20    39    40   ar
    21    29    30   ar
    22    30    31    1
    23     1     4    1
    24     4     5    1
    25     4     6    1
    26     4     7    1
    27     9    10   am
    28    10    11    2
    29    10    12    1
    30    12    13   ar
    31    13    14   ar
    32    14    15   ar
    33    15    16   ar
    34    16    17   ar
    35    17    18    1
    36    30    26   ar
    37    17    12   ar
    38    40    34   ar
    39     2     3    1
    40    22    25    1
    41    31    32    1
    42    31    33    1
@<TRIPOS>MOLECULE
*****
 40 42 0 0 0
SMALL
GASTEIGER

@<TRIPOS>ATOM
      1 C          59.5058   91.2283    5.1517 C.3     1  UNL1        0.2120
      2 O          60.9772   91.1672    5.4365 O.3     1  UNL1       -0.3763
      3 H          61.1689   90.3882    5.9819 H       1  UNL1        0.2107
      4 C          58.0343   91.2894    4.8670 C.3     1  UNL1        0.4226
      5 F          56.5629   91.3506    4.5822 F       1  UNL1       -0.1675
      6 F          58.2893   92.2694    3.7603 F       1  UNL1       -0.1675
      7 F          57.7794   90.3095    5.9737 F       1  UNL1       -0.1675
      8 C          59.7116   92.4842    4.3579 C.3     1  UNL1        0.1307
      9 N          60.6533   92.4876    3.1903 N.am    1  UNL1       -0.2733
     10 C          60.7249   93.6837    2.2880 C.2     1  UNL1        0.2499
     11 O          59.8548   94.8764    2.5532 O.2     1  UNL1       -0.2699
     12 C          61.6667   93.6870    1.1205 C.ar    1  UNL1        0.0641
     13 C          63.0282   94.3018    1.2568 C.ar    1  UNL1        0.0054
     14 C          63.9699   94.3051    0.0893 C.ar    1  UNL1        0.0002
     15 C          63.5502   93.6937   -1.2146 C.ar    1  UNL1        0.0009
     16 C          62.1888   93.0790   -1.3508 C.ar    1  UNL1        0.0115
     17 C          61.2470   93.0756   -0.1833 C.ar    1  UNL1        0.0620
     18 CL         59.8856   92.4609   -0.3197 Cl      1  UNL1       -0.0821
     19 C          63.0054   91.3851    3.1393 C.3     1  UNL1        0.0233
     20 C          61.5235   91.2949    2.9252 C.3     1  UNL1        0.0939
     21 C          59.2999   89.9723    5.9456 C.3     1  UNL1        0.1269
     22 N          60.0025   89.7913    7.2585 N.am    1  UNL1       -0.2982
     23 C          59.8289   88.5184    8.0328 C.2     1  UNL1        0.2502
     24 O          58.9528   87.4264    7.4942 O.2     1  UNL1       -0.2700
     25 H          60.5775   90.5080    7.6120 H       1  UNL1        0.1498
     26 C          60.5314   88.3373    9.3456 C.ar    1  UNL1        0.1053
     27 C          60.3620   87.1793   10.2840 C.ar    1  UNL1        0.1278
     28 N          61.2526   87.4089   11.4690 N.ar    1  UNL1       -0.1622
     29 N          61.9723   88.7086   11.2631 N.ar    1  UNL1       -0.2163
     30 C          61.5266   89.2825    9.9508 C.ar    1  UNL1        0.1327
     31 N          61.9941   90.5746    9.3492 N.pl3   1  UNL1       -0.3424
     32 H          62.6537   91.1291    9.8253 H       1  UNL1        0.1437
     33 H          61.6413   90.8682    8.4782 H       1  UNL1        0.1437
     34 C          62.9638   89.3262   12.2042 C.ar    1  UNL1        0.0843
     35 C          63.3360   90.7720   12.0587 C.ar    1  UNL1        0.0215
     36 C          64.3274   91.3895   12.9998 C.ar    1  UNL1        0.0312
     37 C          64.9466   90.5613   14.0864 C.ar    1  UNL1        0.1402
     38 F          65.9381   91.1789   15.0275 F       1  UNL1       -0.2042
     39 C          64.5744   89.1155   14.2318 C.ar    1  UNL1        0.0312
     40 C          63.5830   88.4980   13.2908 C.ar    1  UNL1        0.0215
@<TRIPOS>BOND
     1    19    20    1
     2    20     9    1
     3     9     8    1
     4     8     1    1
     5     1     2    1
     6     1    21    1
     7    21    22    1
     8    22    23   am
     9    23    24    2
    10    23    26    1
    11    26    27   ar
    12    27    28   ar
    13    28    29   ar
    14    29    34    1
    15    34    35   ar
    16    35    36   ar
    17    36    37   ar
    18    37    38    1
    19    37    39   ar
    20    39    40   ar
    21    29    30   ar
    22    30    31    1
    23     1     4    1
    24     4     5    1
    25     4     6    1
    26     4     7    1
    27     9    10   am
    28    10    11    2
    29    10    12    1
    30    12    13   ar
    31    13    14   ar
    32    14    15   ar
    33    15    16   ar
    34    16    17   ar
    35    17    18    1
    36    30    26   ar
    37    17    12   ar
    38    40    34   ar
    39     2     3    1
    40    22    25    1
    41    31    32    1
    42    31    33    1
