@<TRIPOS>MOLECULE
*****
 25 27 0 0 0
SMALL
GASTEIGER

@<TRIPOS>ATOM
      1 C          63.3831   91.1556   11.8130 C.ar    1  UNL1        0.0366
      2 C          64.2669   91.8148   10.7959 C.ar    1  UNL1        0.0074
      3 C          65.5930   92.3808   11.2092 C.ar    1  UNL1        0.0345
      4 BR         66.4769   93.0401   10.1921 Br      1  UNL1       -0.0490
      5 C          66.0355   92.2876   12.6394 C.ar    1  UNL1        0.0098
      6 C          65.1517   91.6284   13.6564 C.ar    1  UNL1        0.0372
      7 C          63.8255   91.0624   13.2432 C.ar    1  UNL1        0.1369
      8 C          62.0568   90.5895   11.3997 C.3     1  UNL1        0.1564
      9 C          60.4357   89.3203    8.8678 C.3     1  UNL1        0.0518
     10 C          61.1876   88.5471    9.9104 C.ar    1  UNL1        0.0579
     11 C          61.3263   87.0548    9.9721 C.ar    1  UNL1        0.0363
     12 C          62.1572   86.7159   11.1741 C.ar    1  UNL1        0.1160
     13 N          62.5320   87.9988   11.8552 N.ar    1  UNL1       -0.1681
     14 N          61.9328   89.1305   11.0742 N.ar    1  UNL1       -0.2503
     15 C          62.5453   85.3364   11.6172 C.2     1  UNL1        0.0922
     16 O          63.1750   84.3852   10.6434 O.co2   1  UNL1       -0.5430
     17 O          62.3034   84.9082   13.0343 O.co2   1  UNL1       -0.5430
     18 O          62.9417   90.4031   14.2602 O.3     1  UNL1       -0.4709
     19 C          63.5240   89.9058   15.5500 C.3     1  UNL1        0.2320
     20 C          63.6158   88.4319   15.8125 C.ar    1  UNL1        0.0212
     21 C          62.9409   87.8406   17.0146 C.ar    1  UNL1       -0.0007
     22 C          63.0327   86.3666   17.2770 C.ar    1  UNL1       -0.0002
     23 C          63.7994   85.4839   16.3375 C.ar    1  UNL1       -0.0000
     24 C          64.4744   86.0751   15.1354 C.ar    1  UNL1       -0.0002
     25 C          64.3826   87.5490   14.8730 C.ar    1  UNL1       -0.0007
@<TRIPOS>UNITY_ATOM_ATTR
16 1
charge -1
@<TRIPOS>BOND
     1     9    10    1
     2    10    11   ar
     3    11    12   ar
     4    12    15    1
     5    15    16   ar
     6    15    17   ar
     7    12    13   ar
     8    13    14   ar
     9    14     8    1
    10     8     1    1
    11     1     2   ar
    12     2     3   ar
    13     3     4    1
    14     3     5   ar
    15     5     6   ar
    16     6     7   ar
    17     7    18    1
    18    18    19    1
    19    19    20    1
    20    20    21   ar
    21    21    22   ar
    22    22    23   ar
    23    23    24   ar
    24    24    25   ar
    25    14    10   ar
    26     7     1   ar
    27    25    20   ar
@<TRIPOS>MOLECULE
*****
 25 27 0 0 0
SMALL
GASTEIGER

@<TRIPOS>ATOM
      1 C          62.8732   84.5200   12.5728 C.ar    1  UNL1        0.0366
      2 C          63.0711   83.5453   11.4500 C.ar    1  UNL1        0.0074
      3 C          63.0792   82.0715   11.7289 C.ar    1  UNL1        0.0345
      4 BR         63.2771   81.0968   10.6060 Br      1  UNL1       -0.0490
      5 C          62.8894   81.5724   13.1306 C.ar    1  UNL1        0.0098
      6 C          62.6915   82.5470   14.2534 C.ar    1  UNL1        0.0372
      7 C          62.6835   84.0208   13.9746 C.ar    1  UNL1        0.1369
      8 C          62.8651   85.9938   12.2940 C.3     1  UNL1        0.1564
      9 C          62.6993   89.1228   11.3821 C.3     1  UNL1        0.0518
     10 C          62.0229   87.9693   10.7024 C.ar    1  UNL1        0.0579
     11 C          61.1516   88.0516    9.4842 C.ar    1  UNL1        0.0363
     12 C          60.6892   86.6642    9.1505 C.ar    1  UNL1        0.1160
     13 N          61.2749   85.7245   10.1624 N.ar    1  UNL1       -0.1681
     14 N          62.0991   86.5311   11.1216 N.ar    1  UNL1       -0.2503
     15 C          59.7978   86.2833    8.0058 C.2     1  UNL1        0.0922
     16 O          60.2466   85.2474    7.0182 O.co2   1  UNL1       -0.5430
     17 O          58.4576   86.9385    7.8488 O.co2   1  UNL1       -0.5430
     18 O          62.4856   84.9956   15.0975 O.3     1  UNL1       -0.4709
     19 C          63.6667   85.7013   15.6948 C.3     1  UNL1        0.2320
     20 C          63.7213   87.2003   15.6991 C.ar    1  UNL1        0.0212
     21 C          63.0659   87.9715   16.8062 C.ar    1  UNL1       -0.0007
     22 C          63.1205   89.4706   16.8104 C.ar    1  UNL1       -0.0002
     23 C          63.8306   90.1983   15.7076 C.ar    1  UNL1       -0.0000
     24 C          64.4861   89.4271   14.6006 C.ar    1  UNL1       -0.0002
     25 C          64.4315   87.9281   14.5963 C.ar    1  UNL1       -0.0007
@<TRIPOS>UNITY_ATOM_ATTR
16 1
charge -1
@<TRIPOS>BOND
     1     9    10    1
     2    10    11   ar
     3    11    12   ar
     4    12    15    1
     5    15    16   ar
     6    15    17   ar
     7    12    13   ar
     8    13    14   ar
     9    14     8    1
    10     8     1    1
    11     1     2   ar
    12     2     3   ar
    13     3     4    1
    14     3     5   ar
    15     5     6   ar
    16     6     7   ar
    17     7    18    1
    18    18    19    1
    19    19    20    1
    20    20    21   ar
    21    21    22   ar
    22    22    23   ar
    23    23    24   ar
    24    24    25   ar
    25    14    10   ar
    26     7     1   ar
    27    25    20   ar
@<TRIPOS>MOLECULE
*****
 25 27 0 0 0
SMALL
GASTEIGER

@<TRIPOS>ATOM
      1 C          62.0039   86.3832   10.4598 C.ar    1  UNL1        0.0366
      2 C          62.5503   85.6408    9.2765 C.ar    1  UNL1        0.0074
      3 C          61.7642   85.5807    8.0005 C.ar    1  UNL1        0.0345
      4 BR         62.3106   84.8383    6.8171 Br      1  UNL1       -0.0490
      5 C          60.4316   86.2631    7.9077 C.ar    1  UNL1        0.0098
      6 C          59.8851   87.0055    9.0910 C.ar    1  UNL1        0.0372
      7 C          60.6713   87.0656   10.3671 C.ar    1  UNL1        0.1369
      8 C          62.7900   86.4433   11.7359 C.3     1  UNL1        0.1564
      9 C          64.3270   86.2501   14.6082 C.3     1  UNL1        0.0518
     10 C          63.7908   85.0949   13.8157 C.ar    1  UNL1        0.0579
     11 C          63.8670   83.6481   14.2043 C.ar    1  UNL1        0.0363
     12 C          63.2076   82.8427   13.1243 C.ar    1  UNL1        0.1160
     13 N          62.7239   83.7918   12.0682 N.ar    1  UNL1       -0.1681
     14 N          63.0844   85.1837   12.4955 N.ar    1  UNL1       -0.2503
     15 C          63.0581   81.3504   13.1039 C.2     1  UNL1        0.0922
     16 O          62.8116   80.6390   11.8066 O.co2   1  UNL1       -0.5430
     17 O          63.1552   80.5695   14.3809 O.co2   1  UNL1       -0.5430
     18 O          60.1249   87.8080   11.5504 O.3     1  UNL1       -0.4709
     19 C          60.1895   89.3061   11.5911 C.3     1  UNL1        0.2320
     20 C          61.5158   90.0020   11.5099 C.ar    1  UNL1        0.0212
     21 C          62.4058   90.0631   12.7158 C.ar    1  UNL1       -0.0007
     22 C          63.7321   90.7591   12.6346 C.ar    1  UNL1       -0.0002
     23 C          64.1684   91.3939   11.3475 C.ar    1  UNL1       -0.0000
     24 C          63.2785   91.3328   10.1416 C.ar    1  UNL1       -0.0002
     25 C          61.9522   90.6369   10.2228 C.ar    1  UNL1       -0.0007
@<TRIPOS>UNITY_ATOM_ATTR
16 1
charge -1
@<TRIPOS>BOND
     1     9    10    1
     2    10    11   ar
     3    11    12   ar
     4    12    15    1
     5    15    16   ar
     6    15    17   ar
     7    12    13   ar
     8    13    14   ar
     9    14     8    1
    10     8     1    1
    11     1     2   ar
    12     2     3   ar
    13     3     4    1
    14     3     5   ar
    15     5     6   ar
    16     6     7   ar
    17     7    18    1
    18    18    19    1
    19    19    20    1
    20    20    21   ar
    21    21    22   ar
    22    22    23   ar
    23    23    24   ar
    24    24    25   ar
    25    14    10   ar
    26     7     1   ar
    27    25    20   ar
@<TRIPOS>MOLECULE
*****
 25 27 0 0 0
SMALL
GASTEIGER

@<TRIPOS>ATOM
      1 C          62.9052   83.7680   12.2644 C.ar    1  UNL1        0.0366
      2 C          62.4046   82.3561   12.3401 C.ar    1  UNL1        0.0074
      3 C          62.1518   81.7205   13.6751 C.ar    1  UNL1        0.0345
      4 BR         61.6511   80.3085   13.7508 Br      1  UNL1       -0.0490
      5 C          62.3997   82.4969   14.9343 C.ar    1  UNL1        0.0098
      6 C          62.9003   83.9089   14.8586 C.ar    1  UNL1        0.0372
      7 C          63.1531   84.5444   13.5237 C.ar    1  UNL1        0.1369
      8 C          63.1581   84.4036   10.9294 C.3     1  UNL1        0.1564
      9 C          62.6209   85.3061    7.8397 C.3     1  UNL1        0.0518
     10 C          62.0775   85.9829    9.0631 C.ar    1  UNL1        0.0579
     11 C          61.1918   87.1934    9.0810 C.ar    1  UNL1        0.0363
     12 C          60.8913   87.5266   10.5123 C.ar    1  UNL1        0.1160
     13 N          61.5913   86.5221   11.3789 N.ar    1  UNL1       -0.1681
     14 N          62.3244   85.5680   10.4832 N.ar    1  UNL1       -0.2503
     15 C          60.0402   88.6646   10.9927 C.2     1  UNL1        0.0922
     16 O          59.2756   88.5392   12.2770 O.co2   1  UNL1       -0.5430
     17 O          59.9538   89.9279   10.1886 O.co2   1  UNL1       -0.5430
     18 O          63.6538   85.9564   13.4479 O.3     1  UNL1       -0.4709
     19 C          64.4576   86.5287   14.5777 C.3     1  UNL1        0.2320
     20 C          64.1339   87.8920   15.1132 C.ar    1  UNL1        0.0212
     21 C          64.5550   89.1153   14.3542 C.ar    1  UNL1       -0.0007
     22 C          64.2313   90.4786   14.8897 C.ar    1  UNL1       -0.0002
     23 C          63.4865   90.6185   16.1841 C.ar    1  UNL1       -0.0000
     24 C          63.0653   89.3952   16.9431 C.ar    1  UNL1       -0.0002
     25 C          63.3890   88.0319   16.4077 C.ar    1  UNL1       -0.0007
@<TRIPOS>UNITY_ATOM_ATTR
16 1
charge -1
@<TRIPOS>BOND
     1     9    10    1
     2    10    11   ar
     3    11    12   ar
     4    12    15    1
     5    15    16   ar
     6    15    17   ar
     7    12    13   ar
     8    13    14   ar
     9    14     8    1
    10     8     1    1
    11     1     2   ar
    12     2     3   ar
    13     3     4    1
    14     3     5   ar
    15     5     6   ar
    16     6     7   ar
    17     7    18    1
    18    18    19    1
    19    19    20    1
    20    20    21   ar
    21    21    22   ar
    22    22    23   ar
    23    23    24   ar
    24    24    25   ar
    25    14    10   ar
    26     7     1   ar
    27    25    20   ar
@<TRIPOS>MOLECULE
*****
 25 27 0 0 0
SMALL
GASTEIGER

@<TRIPOS>ATOM
      1 C          63.6664   89.6486   12.8939 C.ar    1  UNL1        0.0366
      2 C          62.9340   88.6322   12.0690 C.ar    1  UNL1        0.0074
      3 C          62.4380   88.9936   10.7003 C.ar    1  UNL1        0.0345
      4 BR         61.7056   87.9772    9.8754 Br      1  UNL1       -0.0490
      5 C          62.6743   90.3715   10.1566 C.ar    1  UNL1        0.0098
      6 C          63.4067   91.3879   10.9815 C.ar    1  UNL1        0.0372
      7 C          63.9028   91.0264   12.3501 C.ar    1  UNL1        0.1369
      8 C          64.1625   89.2872   14.2626 C.3     1  UNL1        0.1564
      9 C          63.0911   88.4369   17.2255 C.3     1  UNL1        0.0518
     10 C          63.5084   87.4952   16.1350 C.ar    1  UNL1        0.0579
     11 C          63.5064   85.9973   16.2151 C.ar    1  UNL1        0.0363
     12 C          63.9976   85.4624   14.9026 C.ar    1  UNL1        0.1160
     13 N          64.3032   86.6297   14.0115 N.ar    1  UNL1       -0.1681
     14 N          64.0008   87.8860   14.7732 N.ar    1  UNL1       -0.2503
     15 C          64.1556   84.0144   14.5442 C.2     1  UNL1        0.0922
     16 O          63.8001   82.9519   15.5413 O.co2   1  UNL1       -0.5430
     17 O          64.6692   83.6292   13.1885 O.co2   1  UNL1       -0.5430
     18 O          64.6352   92.0428   13.1751 O.3     1  UNL1       -0.4709
     19 C          66.1074   92.2502   12.9762 C.3     1  UNL1        0.2320
     20 C          66.6064   92.9584   11.7517 C.ar    1  UNL1        0.0212
     21 C          66.2421   94.3941   11.5148 C.ar    1  UNL1       -0.0007
     22 C          66.7411   95.1023   10.2903 C.ar    1  UNL1       -0.0002
     23 C          67.6044   94.3748    9.3026 C.ar    1  UNL1       -0.0000
     24 C          67.9687   92.9391    9.5395 C.ar    1  UNL1       -0.0002
     25 C          67.4697   92.2309   10.7640 C.ar    1  UNL1       -0.0007
@<TRIPOS>UNITY_ATOM_ATTR
16 1
charge -1
@<TRIPOS>BOND
     1     9    10    1
     2    10    11   ar
     3    11    12   ar
     4    12    15    1
     5    15    16   ar
     6    15    17   ar
     7    12    13   ar
     8    13    14   ar
     9    14     8    1
    10     8     1    1
    11     1     2   ar
    12     2     3   ar
    13     3     4    1
    14     3     5   ar
    15     5     6   ar
    16     6     7   ar
    17     7    18    1
    18    18    19    1
    19    19    20    1
    20    20    21   ar
    21    21    22   ar
    22    22    23   ar
    23    23    24   ar
    24    24    25   ar
    25    14    10   ar
    26     7     1   ar
    27    25    20   ar
@<TRIPOS>MOLECULE
*****
 25 27 0 0 0
SMALL
GASTEIGER

@<TRIPOS>ATOM
      1 C          62.4512   86.5600   11.3248 C.ar    1  UNL1        0.0366
      2 C          61.6836   85.9285   10.2014 C.ar    1  UNL1        0.0074
      3 C          60.9106   86.7877    9.2453 C.ar    1  UNL1        0.0345
      4 BR         60.1430   86.1562    8.1218 Br      1  UNL1       -0.0490
      5 C          60.9050   88.2783    9.4126 C.ar    1  UNL1        0.0098
      6 C          61.6726   88.9098   10.5360 C.ar    1  UNL1        0.0372
      7 C          62.4456   88.0506   11.4921 C.ar    1  UNL1        0.1369
      8 C          63.2243   85.7008   12.2809 C.3     1  UNL1        0.1564
      9 C          63.9271   83.6026    9.8823 C.3     1  UNL1        0.0518
     10 C          63.3184   83.2542   11.2083 C.ar    1  UNL1        0.0579
     11 C          62.9260   81.8802   11.6645 C.ar    1  UNL1        0.0363
     12 C          62.3604   81.9955   13.0490 C.ar    1  UNL1        0.1160
     13 N          62.4033   83.4407   13.4484 N.ar    1  UNL1       -0.1681
     14 N          62.9954   84.2187   12.3108 N.ar    1  UNL1       -0.2503
     15 C          61.8428   80.8642   13.8869 C.2     1  UNL1        0.0922
     16 O          60.3806   80.7782   14.2102 O.co2   1  UNL1       -0.5430
     17 O          62.7875   79.8188   14.4016 O.co2   1  UNL1       -0.5430
     18 O          63.2132   88.6821   12.6156 O.3     1  UNL1       -0.4709
     19 C          63.1331   90.1631   12.8392 C.3     1  UNL1        0.2320
     20 C          64.3801   90.9475   13.1213 C.ar    1  UNL1        0.0212
     21 C          64.8337   92.0063   12.1604 C.ar    1  UNL1       -0.0007
     22 C          66.0807   92.7907   12.4426 C.ar    1  UNL1       -0.0002
     23 C          66.8742   92.5164   13.6856 C.ar    1  UNL1       -0.0000
     24 C          66.4206   91.4576   14.6465 C.ar    1  UNL1       -0.0002
     25 C          65.1736   90.6732   14.3644 C.ar    1  UNL1       -0.0007
@<TRIPOS>UNITY_ATOM_ATTR
16 1
charge -1
@<TRIPOS>BOND
     1     9    10    1
     2    10    11   ar
     3    11    12   ar
     4    12    15    1
     5    15    16   ar
     6    15    17   ar
     7    12    13   ar
     8    13    14   ar
     9    14     8    1
    10     8     1    1
    11     1     2   ar
    12     2     3   ar
    13     3     4    1
    14     3     5   ar
    15     5     6   ar
    16     6     7   ar
    17     7    18    1
    18    18    19    1
    19    19    20    1
    20    20    21   ar
    21    21    22   ar
    22    22    23   ar
    23    23    24   ar
    24    24    25   ar
    25    14    10   ar
    26     7     1   ar
    27    25    20   ar
@<TRIPOS>MOLECULE
*****
 25 27 0 0 0
SMALL
GASTEIGER

@<TRIPOS>ATOM
      1 C          60.4733   88.4919   10.6590 C.ar    1  UNL1        0.0366
      2 C          59.9388   89.0999    9.3963 C.ar    1  UNL1        0.0074
      3 C          59.8882   88.2880    8.1360 C.ar    1  UNL1        0.0345
      4 BR         59.3536   88.8960    6.8731 Br      1  UNL1       -0.0490
      5 C          60.3720   86.8682    8.1385 C.ar    1  UNL1        0.0098
      6 C          60.9066   86.2603    9.4013 C.ar    1  UNL1        0.0372
      7 C          60.9572   87.0721   10.6615 C.ar    1  UNL1        0.1369
      8 C          60.5240   89.3037   11.9194 C.3     1  UNL1        0.1564
      9 C          62.6874   90.7728    9.9672 C.3     1  UNL1        0.0518
     10 C          62.8070   90.6139   11.4539 C.ar    1  UNL1        0.0579
     11 C          63.9420   91.1023   12.3043 C.ar    1  UNL1        0.0363
     12 C          63.6490   90.7289   13.7273 C.ar    1  UNL1        0.1160
     13 N          62.3330   90.0097   13.7563 N.ar    1  UNL1       -0.1681
     14 N          61.8126   89.9386   12.3512 N.ar    1  UNL1       -0.2503
     15 C          64.5193   91.0231   14.9131 C.2     1  UNL1        0.0922
     16 O          63.8999   91.4526   16.2098 O.co2   1  UNL1       -0.5430
     17 O          66.0091   90.8876   14.8019 O.co2   1  UNL1       -0.5430
     18 O          61.4917   86.4641   11.9244 O.3     1  UNL1       -0.4709
     19 C          62.6996   85.5760   11.8764 C.3     1  UNL1        0.2320
     20 C          62.6643   84.2261   12.5294 C.ar    1  UNL1        0.0212
     21 C          62.7396   82.9849   11.6904 C.ar    1  UNL1       -0.0007
     22 C          62.7043   81.6349   12.3435 C.ar    1  UNL1       -0.0002
     23 C          62.5938   81.5262   13.8354 C.ar    1  UNL1       -0.0000
     24 C          62.5185   82.7673   14.6743 C.ar    1  UNL1       -0.0002
     25 C          62.5537   84.1172   14.0214 C.ar    1  UNL1       -0.0007
@<TRIPOS>UNITY_ATOM_ATTR
16 1
charge -1
@<TRIPOS>BOND
     1     9    10    1
     2    10    11   ar
     3    11    12   ar
     4    12    15    1
     5    15    16   ar
     6    15    17   ar
     7    12    13   ar
     8    13    14   ar
     9    14     8    1
    10     8     1    1
    11     1     2   ar
    12     2     3   ar
    13     3     4    1
    14     3     5   ar
    15     5     6   ar
    16     6     7   ar
    17     7    18    1
    18    18    19    1
    19    19    20    1
    20    20    21   ar
    21    21    22   ar
    22    22    23   ar
    23    23    24   ar
    24    24    25   ar
    25    14    10   ar
    26     7     1   ar
    27    25    20   ar
@<TRIPOS>MOLECULE
*****
 25 27 0 0 0
SMALL
GASTEIGER

@<TRIPOS>ATOM
      1 C          63.6007   90.3039   12.3448 C.ar    1  UNL1        0.0366
      2 C          63.5031   88.9513   12.9859 C.ar    1  UNL1        0.0074
      3 C          64.2871   88.6523   14.2292 C.ar    1  UNL1        0.0345
      4 BR         64.1895   87.2997   14.8703 Br      1  UNL1       -0.0490
      5 C          65.1687   89.7059   14.8314 C.ar    1  UNL1        0.0098
      6 C          65.2664   91.0585   14.1904 C.ar    1  UNL1        0.0372
      7 C          64.4824   91.3574   12.9470 C.ar    1  UNL1        0.1369
      8 C          62.8167   90.6029   11.1014 C.3     1  UNL1        0.1564
      9 C          59.5664   90.4783   11.3648 C.3     1  UNL1        0.0518
     10 C          60.4296   89.4970   10.6286 C.ar    1  UNL1        0.0579
     11 C          59.9502   88.2861    9.8843 C.ar    1  UNL1        0.0363
     12 C          61.1480   87.5949    9.3032 C.ar    1  UNL1        0.1160
     13 N          62.3676   88.3787    9.6884 N.ar    1  UNL1       -0.1681
     14 N          61.9236   89.5542   10.5076 N.ar    1  UNL1       -0.2503
     15 C          61.1295   86.3403    8.4813 C.2     1  UNL1        0.0922
     16 O          59.8733   85.9251    7.7748 O.co2   1  UNL1       -0.5430
     17 O          62.3674   85.5011    8.3659 O.co2   1  UNL1       -0.5430
     18 O          64.5800   92.7101   12.3059 O.3     1  UNL1       -0.4709
     19 C          65.8965   93.4279   12.2660 C.3     1  UNL1        0.2320
     20 C          66.7210   93.4132   11.0130 C.ar    1  UNL1        0.0212
     21 C          67.5319   92.2008   10.6630 C.ar    1  UNL1       -0.0007
     22 C          68.3565   92.1861    9.4100 C.ar    1  UNL1       -0.0002
     23 C          68.3701   93.3839    8.5071 C.ar    1  UNL1       -0.0000
     24 C          67.5592   94.5962    8.8571 C.ar    1  UNL1       -0.0002
     25 C          66.7346   94.6109   10.1101 C.ar    1  UNL1       -0.0007
@<TRIPOS>UNITY_ATOM_ATTR
16 1
charge -1
@<TRIPOS>BOND
     1     9    10    1
     2    10    11   ar
     3    11    12   ar
     4    12    15    1
     5    15    16   ar
     6    15    17   ar
     7    12    13   ar
     8    13    14   ar
     9    14     8    1
    10     8     1    1
    11     1     2   ar
    12     2     3   ar
    13     3     4    1
    14     3     5   ar
    15     5     6   ar
    16     6     7   ar
    17     7    18    1
    18    18    19    1
    19    19    20    1
    20    20    21   ar
    21    21    22   ar
    22    22    23   ar
    23    23    24   ar
    24    24    25   ar
    25    14    10   ar
    26     7     1   ar
    27    25    20   ar
@<TRIPOS>MOLECULE
*****
 25 27 0 0 0
SMALL
GASTEIGER

@<TRIPOS>ATOM
      1 C          63.5368   88.1496   12.9195 C.ar    1  UNL1        0.0366
      2 C          63.1132   89.3577   12.1379 C.ar    1  UNL1        0.0074
      3 C          62.3026   89.1948   10.8863 C.ar    1  UNL1        0.0345
      4 BR         61.8790   90.4029   10.1045 Br      1  UNL1       -0.0490
      5 C          61.9157   87.8238   10.4164 C.ar    1  UNL1        0.0098
      6 C          62.3393   86.6157   11.1981 C.ar    1  UNL1        0.0372
      7 C          63.1499   86.7786   12.4497 C.ar    1  UNL1        0.1369
      8 C          64.3473   88.3125   14.1712 C.3     1  UNL1        0.1564
      9 C          62.8607   89.6887   16.7296 C.3     1  UNL1        0.0518
     10 C          63.9353   90.3160   15.8919 C.ar    1  UNL1        0.0579
     11 C          64.5151   91.6861   16.0832 C.ar    1  UNL1        0.0363
     12 C          65.5569   91.9003   15.0254 C.ar    1  UNL1        0.1160
     13 N          65.6208   90.6626   14.1804 N.ar    1  UNL1       -0.1681
     14 N          64.6186   89.6835   14.7160 N.ar    1  UNL1       -0.2503
     15 C          66.3887   93.1354   14.8444 C.2     1  UNL1        0.0922
     16 O          66.1384   94.0437   13.6773 O.co2   1  UNL1       -0.5430
     17 O          67.4707   93.4620   15.8305 O.co2   1  UNL1       -0.5430
     18 O          63.5735   85.5705   13.2314 O.3     1  UNL1       -0.4709
     19 C          62.5428   84.6056   13.7379 C.3     1  UNL1        0.2320
     20 C          62.5846   83.1693   13.3077 C.ar    1  UNL1        0.0212
     21 C          62.9615   82.8190   11.8987 C.ar    1  UNL1       -0.0007
     22 C          63.0033   81.3826   11.4684 C.ar    1  UNL1       -0.0002
     23 C          62.6681   80.2965   12.4472 C.ar    1  UNL1       -0.0000
     24 C          62.2912   80.6467   13.8562 C.ar    1  UNL1       -0.0002
     25 C          62.2494   82.0831   14.2864 C.ar    1  UNL1       -0.0007
@<TRIPOS>UNITY_ATOM_ATTR
16 1
charge -1
@<TRIPOS>BOND
     1     9    10    1
     2    10    11   ar
     3    11    12   ar
     4    12    15    1
     5    15    16   ar
     6    15    17   ar
     7    12    13   ar
     8    13    14   ar
     9    14     8    1
    10     8     1    1
    11     1     2   ar
    12     2     3   ar
    13     3     4    1
    14     3     5   ar
    15     5     6   ar
    16     6     7   ar
    17     7    18    1
    18    18    19    1
    19    19    20    1
    20    20    21   ar
    21    21    22   ar
    22    22    23   ar
    23    23    24   ar
    24    24    25   ar
    25    14    10   ar
    26     7     1   ar
    27    25    20   ar
