@<TRIPOS>MOLECULE
*****
 26 28 0 0 0
SMALL
GASTEIGER

@<TRIPOS>ATOM
      1 C          65.0170   92.1354   12.1863 C.ar    1  UNL1        0.0962
      2 C          64.5963   92.2869   10.7545 C.ar    1  UNL1        0.0184
      3 C          63.6004   91.3352   10.1609 C.ar    1  UNL1        0.0015
      4 C          63.0252   90.2321   10.9990 C.ar    1  UNL1        0.0023
      5 C          63.4459   90.0807   12.4307 C.ar    1  UNL1        0.0310
      6 C          64.4418   91.0324   13.0244 C.ar    1  UNL1        0.1549
      7 F          64.8626   90.8810   14.4563 F       1  UNL1       -0.2028
      8 C          62.0292   89.2804   10.4052 C.ar    1  UNL1        0.0002
      9 C          62.0712   87.8263   10.7708 C.ar    1  UNL1        0.0023
     10 C          61.0752   86.8746   10.1771 C.ar    1  UNL1        0.0296
     11 C          60.0374   87.3771    9.2177 C.ar    1  UNL1        0.1401
     12 F          59.0415   86.4255    8.6240 F       1  UNL1       -0.2042
     13 C          59.9955   88.8314    8.8521 C.ar    1  UNL1        0.0296
     14 C          60.9914   89.7830    9.4459 C.ar    1  UNL1        0.0023
     15 N          66.0129   93.0871   12.7801 N.pl3   1  UNL1       -0.1861
     16 C          67.8875   92.1503   14.9268 C.3     1  UNL1        0.1999
     17 S          66.9502   92.6187   13.8534 S.O2    1  UNL1        0.0592
     18 O          67.7929   91.9339   12.8186 O.2     1  UNL1       -0.1542
     19 O          66.1075   93.3035   14.8882 O.2     1  UNL1       -0.1542
     20 C          66.0715   94.5072   12.3005 C.3     1  UNL1        0.1603
     21 C          66.7054   94.8270   10.9791 C.ar    1  UNL1        0.0763
     22 C          66.5223   96.0939   10.1971 C.ar    1  UNL1        0.1149
     23 N          67.3374   95.9860    8.9424 N.ar    1  UNL1       -0.2228
     24 C          68.0241   94.6524    8.9491 C.ar    1  UNL1        0.1748
     25 N          67.6335   93.9361   10.2078 N.ar    1  UNL1       -0.3368
     26 H          67.9336   93.0388   10.4799 H       1  UNL1        0.1672
@<TRIPOS>BOND
     1    16    17    1
     2    17    18    2
     3    17    19    2
     4    17    15    1
     5    15    20    1
     6    20    21    1
     7    21    22   ar
     8    22    23   ar
     9    23    24   ar
    10    24    25   ar
    11    15     1    1
    12     1     2   ar
    13     2     3   ar
    14     3     4   ar
    15     4     8    1
    16     8     9   ar
    17     9    10   ar
    18    10    11   ar
    19    11    12    1
    20    11    13   ar
    21    13    14   ar
    22     4     5   ar
    23     5     6   ar
    24     6     7    1
    25    25    21   ar
    26     6     1   ar
    27    14     8   ar
    28    25    26    1
@<TRIPOS>MOLECULE
*****
 26 28 0 0 0
SMALL
GASTEIGER

@<TRIPOS>ATOM
      1 C          62.6994   89.9080   11.7928 C.ar    1  UNL1        0.0962
      2 C          63.1062   89.3403   13.1202 C.ar    1  UNL1        0.0184
      3 C          64.2383   89.9590   13.8853 C.ar    1  UNL1        0.0015
      4 C          64.9637   91.1454   13.3230 C.ar    1  UNL1        0.0023
      5 C          64.5569   91.7132   11.9956 C.ar    1  UNL1        0.0310
      6 C          63.4248   91.0945   11.2305 C.ar    1  UNL1        0.1549
      7 F          63.0180   91.6622    9.9029 F       1  UNL1       -0.2028
      8 C          66.0958   91.7641   14.0882 C.ar    1  UNL1        0.0002
      9 C          67.4489   91.8915   13.4535 C.ar    1  UNL1        0.0023
     10 C          68.5811   92.5102   14.2187 C.ar    1  UNL1        0.0296
     11 C          68.3601   93.0015   15.6187 C.ar    1  UNL1        0.1401
     12 F          69.4922   93.6202   16.3839 F       1  UNL1       -0.2042
     13 C          67.0069   92.8741   16.2533 C.ar    1  UNL1        0.0296
     14 C          65.8748   92.2555   15.4881 C.ar    1  UNL1        0.0023
     15 N          61.5673   89.2893   11.0276 N.pl3   1  UNL1       -0.1861
     16 C          58.8302   89.1518   12.2481 C.3     1  UNL1        0.1999
     17 S          60.1987   89.2205   11.6378 S.O2    1  UNL1        0.0592
     18 O          60.3638   87.7436   11.8415 O.2     1  UNL1       -0.1542
     19 O          60.0337   90.6975   11.4341 O.2     1  UNL1       -0.1542
     20 C          61.8036   88.7395    9.6522 C.3     1  UNL1        0.1603
     21 C          60.6559   88.1942    8.8550 C.ar    1  UNL1        0.0763
     22 C          59.7553   88.9842    7.9523 C.ar    1  UNL1        0.1149
     23 N          58.7501   88.0414    7.3599 N.ar    1  UNL1       -0.2228
     24 C          59.0296   86.6688    7.8965 C.ar    1  UNL1        0.1748
     25 N          60.2074   86.7632    8.8205 N.ar    1  UNL1       -0.3368
     26 H          60.6146   86.0170    9.3171 H       1  UNL1        0.1672
@<TRIPOS>BOND
     1    16    17    1
     2    17    18    2
     3    17    19    2
     4    17    15    1
     5    15    20    1
     6    20    21    1
     7    21    22   ar
     8    22    23   ar
     9    23    24   ar
    10    24    25   ar
    11    15     1    1
    12     1     2   ar
    13     2     3   ar
    14     3     4   ar
    15     4     8    1
    16     8     9   ar
    17     9    10   ar
    18    10    11   ar
    19    11    12    1
    20    11    13   ar
    21    13    14   ar
    22     4     5   ar
    23     5     6   ar
    24     6     7    1
    25    25    21   ar
    26     6     1   ar
    27    14     8   ar
    28    25    26    1
@<TRIPOS>MOLECULE
*****
 26 28 0 0 0
SMALL
GASTEIGER

@<TRIPOS>ATOM
      1 C          62.9510   90.0085   12.0117 C.ar    1  UNL1        0.0962
      2 C          63.3882   89.4368   13.3277 C.ar    1  UNL1        0.0184
      3 C          64.5360   90.0546   14.0696 C.ar    1  UNL1        0.0015
      4 C          65.2468   91.2443   13.4955 C.ar    1  UNL1        0.0023
      5 C          64.8097   91.8160   12.1795 C.ar    1  UNL1        0.0310
      6 C          63.6618   91.1982   11.4376 C.ar    1  UNL1        0.1549
      7 F          63.2246   91.7699   10.1215 F       1  UNL1       -0.2028
      8 C          66.3948   91.8621   14.2376 C.ar    1  UNL1        0.0002
      9 C          67.7624   91.8816   13.6218 C.ar    1  UNL1        0.0023
     10 C          68.9103   92.4995   14.3638 C.ar    1  UNL1        0.0296
     11 C          68.6906   93.0979   15.7216 C.ar    1  UNL1        0.1401
     12 F          69.8384   93.7157   16.4636 F       1  UNL1       -0.2042
     13 C          67.3229   93.0784   16.3374 C.ar    1  UNL1        0.0296
     14 C          66.1750   92.4606   15.5954 C.ar    1  UNL1        0.0023
     15 N          61.8031   89.3907   11.2696 N.pl3   1  UNL1       -0.1861
     16 C          59.0347   90.4989   11.5975 C.3     1  UNL1        0.1999
     17 S          60.4189   89.9448   11.4336 S.O2    1  UNL1        0.0592
     18 O          60.4132   90.3573    9.9914 O.2     1  UNL1       -0.1542
     19 O          60.4245   89.5323   12.8757 O.2     1  UNL1       -0.1542
     20 C          62.0394   88.2187   10.3638 C.3     1  UNL1        0.1603
     21 C          62.2359   86.8496   10.9444 C.ar    1  UNL1        0.0763
     22 C          61.9786   85.5491   10.2425 C.ar    1  UNL1        0.1149
     23 N          62.3079   84.4364   11.1930 N.ar    1  UNL1       -0.2228
     24 C          62.7685   85.0492   12.4823 C.ar    1  UNL1        0.1748
     25 N          62.7240   86.5406   12.3286 N.ar    1  UNL1       -0.3368
     26 H          62.9718   87.2008   13.0157 H       1  UNL1        0.1672
@<TRIPOS>BOND
     1    16    17    1
     2    17    18    2
     3    17    19    2
     4    17    15    1
     5    15    20    1
     6    20    21    1
     7    21    22   ar
     8    22    23   ar
     9    23    24   ar
    10    24    25   ar
    11    15     1    1
    12     1     2   ar
    13     2     3   ar
    14     3     4   ar
    15     4     8    1
    16     8     9   ar
    17     9    10   ar
    18    10    11   ar
    19    11    12    1
    20    11    13   ar
    21    13    14   ar
    22     4     5   ar
    23     5     6   ar
    24     6     7    1
    25    25    21   ar
    26     6     1   ar
    27    14     8   ar
    28    25    26    1
@<TRIPOS>MOLECULE
*****
 26 28 0 0 0
SMALL
GASTEIGER

@<TRIPOS>ATOM
      1 C          64.7875   91.7803   12.1929 C.ar    1  UNL1        0.0962
      2 C          64.3234   90.5466   12.9088 C.ar    1  UNL1        0.0184
      3 C          63.3465   89.6193   12.2488 C.ar    1  UNL1        0.0015
      4 C          62.8337   89.9257   10.8729 C.ar    1  UNL1        0.0023
      5 C          63.2977   91.1594   10.1570 C.ar    1  UNL1        0.0310
      6 C          64.2746   92.0867   10.8170 C.ar    1  UNL1        0.1549
      7 F          64.7388   93.3205   10.1011 F       1  UNL1       -0.2028
      8 C          61.8567   88.9983   10.2129 C.ar    1  UNL1        0.0002
      9 C          60.7903   89.5489    9.3132 C.ar    1  UNL1        0.0023
     10 C          59.8133   88.6215    8.6531 C.ar    1  UNL1        0.0296
     11 C          59.9028   87.1435    8.8929 C.ar    1  UNL1        0.1401
     12 F          58.9260   86.2161    8.2329 F       1  UNL1       -0.2042
     13 C          60.9693   86.5929    9.7926 C.ar    1  UNL1        0.0296
     14 C          61.9462   87.5203   10.4526 C.ar    1  UNL1        0.0023
     15 N          65.7644   92.7077   12.8529 N.pl3   1  UNL1       -0.1861
     16 C          67.3480   91.7775   15.2251 C.3     1  UNL1        0.1999
     17 S          66.5562   92.2426   14.0390 S.O2    1  UNL1        0.0592
     18 O          65.5001   92.7841   14.9563 O.2     1  UNL1       -0.1542
     19 O          67.6123   91.7011   13.1217 O.2     1  UNL1       -0.1542
     20 C          65.9496   94.1002   12.3269 C.3     1  UNL1        0.1603
     21 C          66.7734   94.3332   11.0951 C.ar    1  UNL1        0.0763
     22 C          66.8291   95.6034   10.2991 C.ar    1  UNL1        0.1149
     23 N          67.7762   95.3923    9.1552 N.ar    1  UNL1       -0.2228
     24 C          68.3058   93.9916    9.2444 C.ar    1  UNL1        0.1748
     25 N          67.6860   93.3372   10.4433 N.ar    1  UNL1       -0.3368
     26 H          67.8495   92.4157   10.7488 H       1  UNL1        0.1672
@<TRIPOS>BOND
     1    16    17    1
     2    17    18    2
     3    17    19    2
     4    17    15    1
     5    15    20    1
     6    20    21    1
     7    21    22   ar
     8    22    23   ar
     9    23    24   ar
    10    24    25   ar
    11    15     1    1
    12     1     2   ar
    13     2     3   ar
    14     3     4   ar
    15     4     8    1
    16     8     9   ar
    17     9    10   ar
    18    10    11   ar
    19    11    12    1
    20    11    13   ar
    21    13    14   ar
    22     4     5   ar
    23     5     6   ar
    24     6     7    1
    25    25    21   ar
    26     6     1   ar
    27    14     8   ar
    28    25    26    1
@<TRIPOS>MOLECULE
*****
 26 28 0 0 0
SMALL
GASTEIGER

@<TRIPOS>ATOM
      1 C          63.1305   89.1568   12.5342 C.ar    1  UNL1        0.0962
      2 C          63.1967   87.6646   12.6708 C.ar    1  UNL1        0.0184
      3 C          62.8292   86.7882   11.5103 C.ar    1  UNL1        0.0015
      4 C          62.3955   87.4041   10.2131 C.ar    1  UNL1        0.0023
      5 C          62.3293   88.8964   10.0766 C.ar    1  UNL1        0.0310
      6 C          62.6968   89.7727   11.2371 C.ar    1  UNL1        0.1549
      7 F          62.6306   91.2651   11.1006 F       1  UNL1       -0.2028
      8 C          62.0280   86.5277    9.0526 C.ar    1  UNL1        0.0002
      9 C          60.6340   86.5607    8.4997 C.ar    1  UNL1        0.0023
     10 C          60.2665   85.6842    7.3391 C.ar    1  UNL1        0.0296
     11 C          61.2930   84.7749    6.7315 C.ar    1  UNL1        0.1401
     12 F          60.9256   83.8985    5.5709 F       1  UNL1       -0.2042
     13 C          62.6871   84.7419    7.2844 C.ar    1  UNL1        0.0296
     14 C          63.0545   85.6183    8.4449 C.ar    1  UNL1        0.0023
     15 N          63.4980   90.0333   13.6948 N.pl3   1  UNL1       -0.1861
     16 C          63.3823   88.9484   16.4894 C.3     1  UNL1        0.1999
     17 S          63.4401   89.4908   15.0921 S.O2    1  UNL1        0.0592
     18 O          64.9031   89.1660   15.0266 O.2     1  UNL1       -0.1542
     19 O          61.9772   89.8157   15.1576 O.2     1  UNL1       -0.1542
     20 C          63.9234   91.4520   13.4581 C.3     1  UNL1        0.1603
     21 C          65.3722   91.7744   13.2408 C.ar    1  UNL1        0.0763
     22 C          65.9478   92.4906   12.0551 C.ar    1  UNL1        0.1149
     23 N          67.4311   92.5959   12.2525 N.ar    1  UNL1       -0.2228
     24 C          67.7721   91.9448   13.5601 C.ar    1  UNL1        0.1748
     25 N          66.4996   91.4371   14.1708 N.ar    1  UNL1       -0.3368
     26 H          66.4187   90.9653   15.0311 H       1  UNL1        0.1672
@<TRIPOS>BOND
     1    16    17    1
     2    17    18    2
     3    17    19    2
     4    17    15    1
     5    15    20    1
     6    20    21    1
     7    21    22   ar
     8    22    23   ar
     9    23    24   ar
    10    24    25   ar
    11    15     1    1
    12     1     2   ar
    13     2     3   ar
    14     3     4   ar
    15     4     8    1
    16     8     9   ar
    17     9    10   ar
    18    10    11   ar
    19    11    12    1
    20    11    13   ar
    21    13    14   ar
    22     4     5   ar
    23     5     6   ar
    24     6     7    1
    25    25    21   ar
    26     6     1   ar
    27    14     8   ar
    28    25    26    1
@<TRIPOS>MOLECULE
*****
 26 28 0 0 0
SMALL
GASTEIGER

@<TRIPOS>ATOM
      1 C          62.9910   84.4588   11.8821 C.ar    1  UNL1        0.0962
      2 C          61.9982   85.4596   12.3947 C.ar    1  UNL1        0.0184
      3 C          61.2659   86.3490   11.4342 C.ar    1  UNL1        0.0015
      4 C          61.5264   86.2377    9.9612 C.ar    1  UNL1        0.0023
      5 C          62.5192   85.2369    9.4487 C.ar    1  UNL1        0.0310
      6 C          63.2515   84.3475   10.4091 C.ar    1  UNL1        0.1549
      7 F          64.2444   83.3466    9.8966 F       1  UNL1       -0.2028
      8 C          60.7940   87.1272    9.0007 C.ar    1  UNL1        0.0002
      9 C          60.8229   88.6155    9.1857 C.ar    1  UNL1        0.0023
     10 C          60.0905   89.5050    8.2252 C.ar    1  UNL1        0.0296
     11 C          59.3293   88.9062    7.0798 C.ar    1  UNL1        0.1401
     12 F          58.5969   89.7956    6.1194 F       1  UNL1       -0.2042
     13 C          59.3004   87.4179    6.8949 C.ar    1  UNL1        0.0296
     14 C          60.0327   86.5284    7.8554 C.ar    1  UNL1        0.0023
     15 N          63.7234   83.5693   12.8426 N.pl3   1  UNL1       -0.1861
     16 C          63.2512   80.6069   12.8017 C.3     1  UNL1        0.1999
     17 S          63.4873   82.0881   12.8222 S.O2    1  UNL1        0.0592
     18 O          64.8746   81.8743   12.2932 O.2     1  UNL1       -0.1542
     19 O          62.1000   82.3019   13.3511 O.2     1  UNL1       -0.1542
     20 C          64.6918   84.1609   13.8234 C.3     1  UNL1        0.1603
     21 C          64.2154   85.1539   14.8418 C.ar    1  UNL1        0.0763
     22 C          64.4649   86.6328   14.8150 C.ar    1  UNL1        0.1149
     23 N          63.8096   87.2353   16.0224 N.ar    1  UNL1       -0.2228
     24 C          63.1552   86.1287   16.7953 C.ar    1  UNL1        0.1748
     25 N          63.4061   84.8424   16.0657 N.ar    1  UNL1       -0.3368
     26 H          63.0942   83.9503   16.3416 H       1  UNL1        0.1672
@<TRIPOS>BOND
     1    16    17    1
     2    17    18    2
     3    17    19    2
     4    17    15    1
     5    15    20    1
     6    20    21    1
     7    21    22   ar
     8    22    23   ar
     9    23    24   ar
    10    24    25   ar
    11    15     1    1
    12     1     2   ar
    13     2     3   ar
    14     3     4   ar
    15     4     8    1
    16     8     9   ar
    17     9    10   ar
    18    10    11   ar
    19    11    12    1
    20    11    13   ar
    21    13    14   ar
    22     4     5   ar
    23     5     6   ar
    24     6     7    1
    25    25    21   ar
    26     6     1   ar
    27    14     8   ar
    28    25    26    1
@<TRIPOS>MOLECULE
*****
 26 28 0 0 0
SMALL
GASTEIGER

@<TRIPOS>ATOM
      1 C          62.5967   87.9084   11.9409 C.ar    1  UNL1        0.0962
      2 C          63.3869   87.2880   13.0547 C.ar    1  UNL1        0.0184
      3 C          63.4191   85.7965   13.2111 C.ar    1  UNL1        0.0015
      4 C          62.6611   84.9255   12.2537 C.ar    1  UNL1        0.0023
      5 C          61.8709   85.5459   11.1398 C.ar    1  UNL1        0.0310
      6 C          61.8387   87.0373   10.9834 C.ar    1  UNL1        0.1549
      7 F          61.0485   87.6578    9.8696 F       1  UNL1       -0.2028
      8 C          62.6933   83.4340   12.4101 C.ar    1  UNL1        0.0002
      9 C          63.0407   82.5643   11.2384 C.ar    1  UNL1        0.0023
     10 C          63.0729   81.0728   11.3949 C.ar    1  UNL1        0.0296
     11 C          62.7576   80.4510   12.7230 C.ar    1  UNL1        0.1401
     12 F          62.7898   78.9596   12.8795 F       1  UNL1       -0.2042
     13 C          62.4101   81.3208   13.8948 C.ar    1  UNL1        0.0296
     14 C          62.3780   82.8122   13.7383 C.ar    1  UNL1        0.0023
     15 N          62.5645   89.3999   11.7844 N.pl3   1  UNL1       -0.1861
     16 C          60.0257   90.7667   10.9559 C.3     1  UNL1        0.1999
     17 S          61.2951   90.0833   11.3702 S.O2    1  UNL1        0.0592
     18 O          60.6417   89.6434   12.6467 O.2     1  UNL1       -0.1542
     19 O          61.9485   90.5232   10.0936 O.2     1  UNL1       -0.1542
     20 C          63.8017   90.2079   12.0422 C.3     1  UNL1        0.1603
     21 C          64.0879   90.7217   13.4221 C.ar    1  UNL1        0.0763
     22 C          65.2911   91.5168   13.8348 C.ar    1  UNL1        0.1149
     23 N          65.1681   91.8171   15.2994 N.ar    1  UNL1       -0.2228
     24 C          63.8889   91.2076   15.7917 C.ar    1  UNL1        0.1748
     25 N          63.2214   90.5306   14.6315 N.ar    1  UNL1       -0.3368
     26 H          62.3649   90.0460   14.6589 H       1  UNL1        0.1672
@<TRIPOS>BOND
     1    16    17    1
     2    17    18    2
     3    17    19    2
     4    17    15    1
     5    15    20    1
     6    20    21    1
     7    21    22   ar
     8    22    23   ar
     9    23    24   ar
    10    24    25   ar
    11    15     1    1
    12     1     2   ar
    13     2     3   ar
    14     3     4   ar
    15     4     8    1
    16     8     9   ar
    17     9    10   ar
    18    10    11   ar
    19    11    12    1
    20    11    13   ar
    21    13    14   ar
    22     4     5   ar
    23     5     6   ar
    24     6     7    1
    25    25    21   ar
    26     6     1   ar
    27    14     8   ar
    28    25    26    1
@<TRIPOS>MOLECULE
*****
 26 28 0 0 0
SMALL
GASTEIGER

@<TRIPOS>ATOM
      1 C          63.9966   89.2337   13.4437 C.ar    1  UNL1        0.0962
      2 C          64.4369   88.3454   14.5693 C.ar    1  UNL1        0.0184
      3 C          64.1521   86.8736   14.5186 C.ar    1  UNL1        0.0015
      4 C          63.4270   86.2901   13.3423 C.ar    1  UNL1        0.0023
      5 C          62.9866   87.1784   12.2167 C.ar    1  UNL1        0.0310
      6 C          63.2714   88.6502   12.2674 C.ar    1  UNL1        0.1549
      7 F          62.8311   89.5386   11.1418 F       1  UNL1       -0.2028
      8 C          63.1422   84.8182   13.2916 C.ar    1  UNL1        0.0002
      9 C          62.9463   84.0480   14.5637 C.ar    1  UNL1        0.0023
     10 C          62.6615   82.5761   14.5130 C.ar    1  UNL1        0.0296
     11 C          62.5726   81.8745   13.1902 C.ar    1  UNL1        0.1401
     12 F          62.2878   80.4027   13.1395 F       1  UNL1       -0.2042
     13 C          62.7685   82.6448   11.9180 C.ar    1  UNL1        0.0296
     14 C          63.0533   84.1167   11.9688 C.ar    1  UNL1        0.0023
     15 N          64.2814   90.7056   13.4944 N.pl3   1  UNL1       -0.1861
     16 C          65.5145   91.9112   15.9492 C.3     1  UNL1        0.1999
     17 S          64.8979   91.3084   14.7218 S.O2    1  UNL1        0.0592
     18 O          66.2633   91.1102   14.1333 O.2     1  UNL1       -0.1542
     19 O          63.5325   91.5066   15.3103 O.2     1  UNL1       -0.1542
     20 C          63.9496   91.5747   12.3177 C.3     1  UNL1        0.1603
     21 C          64.9964   92.4751   11.7315 C.ar    1  UNL1        0.0763
     22 C          65.5976   92.3537   10.3626 C.ar    1  UNL1        0.1149
     23 N          66.5985   93.4586   10.1963 N.ar    1  UNL1       -0.2228
     24 C          66.6159   94.2627   11.4625 C.ar    1  UNL1        0.1748
     25 N          65.6257   93.6549   12.4112 N.ar    1  UNL1       -0.3368
     26 H          65.4243   93.9742   13.3205 H       1  UNL1        0.1672
@<TRIPOS>BOND
     1    16    17    1
     2    17    18    2
     3    17    19    2
     4    17    15    1
     5    15    20    1
     6    20    21    1
     7    21    22   ar
     8    22    23   ar
     9    23    24   ar
    10    24    25   ar
    11    15     1    1
    12     1     2   ar
    13     2     3   ar
    14     3     4   ar
    15     4     8    1
    16     8     9   ar
    17     9    10   ar
    18    10    11   ar
    19    11    12    1
    20    11    13   ar
    21    13    14   ar
    22     4     5   ar
    23     5     6   ar
    24     6     7    1
    25    25    21   ar
    26     6     1   ar
    27    14     8   ar
    28    25    26    1
@<TRIPOS>MOLECULE
*****
 26 28 0 0 0
SMALL
GASTEIGER

@<TRIPOS>ATOM
      1 C          63.3517   87.9991   12.9396 C.ar    1  UNL1        0.0962
      2 C          62.5380   87.3908   11.8360 C.ar    1  UNL1        0.0184
      3 C          62.4158   85.8996   11.7288 C.ar    1  UNL1        0.0015
      4 C          63.1073   85.0169   12.7251 C.ar    1  UNL1        0.0023
      5 C          63.9209   85.6252   13.8287 C.ar    1  UNL1        0.0310
      6 C          64.0431   87.1164   13.9359 C.ar    1  UNL1        0.1549
      7 F          64.8568   87.7248   15.0395 F       1  UNL1       -0.2028
      8 C          62.9851   83.5257   12.6178 C.ar    1  UNL1        0.0002
      9 C          63.2879   82.8399   11.3187 C.ar    1  UNL1        0.0023
     10 C          63.1657   81.3487   11.2114 C.ar    1  UNL1        0.0296
     11 C          62.7406   80.5433   12.4033 C.ar    1  UNL1        0.1401
     12 F          62.6183   79.0522   12.2961 F       1  UNL1       -0.2042
     13 C          62.4377   81.2292   13.7026 C.ar    1  UNL1        0.0296
     14 C          62.5600   82.7203   13.8098 C.ar    1  UNL1        0.0023
     15 N          63.4739   89.4903   13.0469 N.pl3   1  UNL1       -0.1861
     16 C          64.2098   90.7503   15.6681 C.3     1  UNL1        0.1999
     17 S          63.8419   90.1203   14.3575 S.O2    1  UNL1        0.0592
     18 O          65.1942   90.4692   13.8102 O.2     1  UNL1       -0.1542
     19 O          62.4896   89.7715   14.9049 O.2     1  UNL1       -0.1542
     20 C          63.2282   90.3515   11.8436 C.3     1  UNL1        0.1603
     21 C          61.8682   90.3869   11.2117 C.ar    1  UNL1        0.0763
     22 C          61.5734   90.2613    9.7463 C.ar    1  UNL1        0.1149
     23 N          60.0872   90.3509    9.5632 N.ar    1  UNL1       -0.2228
     24 C          59.4636   90.5319   10.9154 C.ar    1  UNL1        0.1748
     25 N          60.5643   90.5542   11.9342 N.ar    1  UNL1       -0.3368
     26 H          60.4509   90.6600   12.9064 H       1  UNL1        0.1672
@<TRIPOS>BOND
     1    16    17    1
     2    17    18    2
     3    17    19    2
     4    17    15    1
     5    15    20    1
     6    20    21    1
     7    21    22   ar
     8    22    23   ar
     9    23    24   ar
    10    24    25   ar
    11    15     1    1
    12     1     2   ar
    13     2     3   ar
    14     3     4   ar
    15     4     8    1
    16     8     9   ar
    17     9    10   ar
    18    10    11   ar
    19    11    12    1
    20    11    13   ar
    21    13    14   ar
    22     4     5   ar
    23     5     6   ar
    24     6     7    1
    25    25    21   ar
    26     6     1   ar
    27    14     8   ar
    28    25    26    1
