@<TRIPOS>MOLECULE
*****
 19 21 0 0 0
SMALL
GASTEIGER

@<TRIPOS>ATOM
      1 C          61.9576   90.2443   11.1042 C.ar    1  UNL1        0.1431
      2 N          62.0135   89.7042   12.5025 N.ar    1  UNL1       -0.2292
      3 C          63.1511   90.0778   13.4060 C.ar    1  UNL1        0.0972
      4 C          64.2329   90.9916   12.9111 C.ar    1  UNL1        0.0120
      5 C          64.1770   91.5316   11.5129 C.ar    1  UNL1        0.0593
      6 N          63.0394   91.1580   10.6094 N.ar    1  UNL1       -0.2349
      7 C          65.1440   92.4495   10.8254 C.3     1  UNL1        0.0626
      8 C          66.4057   93.0539   11.3666 C.3     1  UNL1        0.0749
      9 N          67.0120   92.8898   12.7287 N.3     1  UNL1       -0.2969
     10 C          66.5064   92.0808   13.8862 C.3     1  UNL1        0.0734
     11 C          65.2696   91.2359   13.9674 C.3     1  UNL1        0.0462
     12 H          67.0832   93.8400   13.0928 H       1  UNL1        0.1233
     13 C          60.8200   89.8706   10.2009 C.3     1  UNL1        0.0919
     14 C          60.8887   85.9446    8.0026 C.ar    1  UNL1       -0.0000
     15 C          62.0224   86.3146    8.9127 C.ar    1  UNL1       -0.0003
     16 C          61.9994   87.6232    9.6454 C.ar    1  UNL1       -0.0038
     17 C          60.8429   88.5619    9.4681 C.ar    1  UNL1       -0.0146
     18 C          59.7093   88.1919    8.5581 C.ar    1  UNL1       -0.0038
     19 C          59.7322   86.8833    7.8253 C.ar    1  UNL1       -0.0003
@<TRIPOS>BOND
     1    14    15   ar
     2    15    16   ar
     3    16    17   ar
     4    17    13    1
     5    13     1    1
     6     1     2   ar
     7     2     3   ar
     8     3     4   ar
     9     4     5   ar
    10     5     6   ar
    11     5     7    1
    12     7     8    1
    13     8     9    1
    14     9    10    1
    15    10    11    1
    16    17    18   ar
    17    18    19   ar
    18    19    14   ar
    19     6     1   ar
    20    11     4    1
    21     9    12    1
@<TRIPOS>MOLECULE
*****
 19 21 0 0 0
SMALL
GASTEIGER

@<TRIPOS>ATOM
      1 C          61.9452   88.9663   11.0847 C.ar    1  UNL1        0.1431
      2 N          62.1660   90.0215   10.0416 N.ar    1  UNL1       -0.2292
      3 C          63.1417   91.1326   10.2936 C.ar    1  UNL1        0.0972
      4 C          63.8966   91.1886   11.5887 C.ar    1  UNL1        0.0120
      5 C          63.6757   90.1335   12.6316 C.ar    1  UNL1        0.0593
      6 N          62.7001   89.0224   12.3797 N.ar    1  UNL1       -0.2349
      7 C          64.3192   90.0024   13.9803 C.3     1  UNL1        0.0626
      8 C          65.3425   90.8942   14.6190 C.3     1  UNL1        0.0749
      9 N          65.9748   92.1371   14.0667 N.3     1  UNL1       -0.2969
     10 C          65.7403   92.7954   12.7394 C.3     1  UNL1        0.0734
     11 C          64.8154   92.3733   11.6366 C.3     1  UNL1        0.0462
     12 H          66.9761   91.9429   14.0822 H       1  UNL1        0.1233
     13 C          60.9696   87.8552   10.8327 C.3     1  UNL1        0.0919
     14 C          61.4568   85.2082    7.2263 C.ar    1  UNL1       -0.0000
     15 C          62.6038   85.4049    8.1727 C.ar    1  UNL1       -0.0003
     16 C          62.4414   86.2872    9.3747 C.ar    1  UNL1       -0.0038
     17 C          61.1320   86.9729    9.6305 C.ar    1  UNL1       -0.0146
     18 C          59.9849   86.7761    8.6841 C.ar    1  UNL1       -0.0038
     19 C          60.1473   85.8938    7.4820 C.ar    1  UNL1       -0.0003
@<TRIPOS>BOND
     1    14    15   ar
     2    15    16   ar
     3    16    17   ar
     4    17    13    1
     5    13     1    1
     6     1     2   ar
     7     2     3   ar
     8     3     4   ar
     9     4     5   ar
    10     5     6   ar
    11     5     7    1
    12     7     8    1
    13     8     9    1
    14     9    10    1
    15    10    11    1
    16    17    18   ar
    17    18    19   ar
    18    19    14   ar
    19     6     1   ar
    20    11     4    1
    21     9    12    1
@<TRIPOS>MOLECULE
*****
 19 21 0 0 0
SMALL
GASTEIGER

@<TRIPOS>ATOM
      1 C          62.4511   89.1490   11.2448 C.ar    1  UNL1        0.1431
      2 N          62.7225   90.1528   10.1637 N.ar    1  UNL1       -0.2292
      3 C          63.6214   91.3226   10.4349 C.ar    1  UNL1        0.0972
      4 C          64.2488   91.4887   11.7873 C.ar    1  UNL1        0.0120
      5 C          63.9773   90.4850   12.8683 C.ar    1  UNL1        0.0593
      6 N          63.0785   89.3151   12.5971 N.ar    1  UNL1       -0.2349
      7 C          64.4970   90.4621   14.2752 C.3     1  UNL1        0.0626
      8 C          65.4166   91.4375   14.9485 C.3     1  UNL1        0.0749
      9 N          66.0434   92.6764   14.3812 N.3     1  UNL1       -0.2969
     10 C          65.9057   93.2461   13.0004 C.3     1  UNL1        0.0734
     11 C          65.1070   92.7175   11.8460 C.3     1  UNL1        0.0462
     12 H          67.0463   92.5324   14.4993 H       1  UNL1        0.1233
     13 C          61.5522   87.9792   10.9735 C.3     1  UNL1        0.0919
     14 C          63.3080   84.0503    9.6577 C.ar    1  UNL1       -0.0000
     15 C          62.9693   84.2744   11.1018 C.ar    1  UNL1       -0.0003
     16 C          62.3841   85.5840   11.5403 C.ar    1  UNL1       -0.0038
     17 C          62.1375   86.6696   10.5349 C.ar    1  UNL1       -0.0146
     18 C          62.4762   86.4455    9.0909 C.ar    1  UNL1       -0.0038
     19 C          63.0615   85.1359    8.6523 C.ar    1  UNL1       -0.0003
@<TRIPOS>BOND
     1    14    15   ar
     2    15    16   ar
     3    16    17   ar
     4    17    13    1
     5    13     1    1
     6     1     2   ar
     7     2     3   ar
     8     3     4   ar
     9     4     5   ar
    10     5     6   ar
    11     5     7    1
    12     7     8    1
    13     8     9    1
    14     9    10    1
    15    10    11    1
    16    17    18   ar
    17    18    19   ar
    18    19    14   ar
    19     6     1   ar
    20    11     4    1
    21     9    12    1
@<TRIPOS>MOLECULE
*****
 19 21 0 0 0
SMALL
GASTEIGER

@<TRIPOS>ATOM
      1 C          62.4623   86.2235   11.6440 C.ar    1  UNL1        0.1431
      2 N          62.6892   87.6875   11.8787 N.ar    1  UNL1       -0.2292
      3 C          62.0283   88.7006   10.9917 C.ar    1  UNL1        0.0972
      4 C          61.1403   88.2496    9.8699 C.ar    1  UNL1        0.0120
      5 C          60.9134   86.7857    9.6353 C.ar    1  UNL1        0.0593
      6 N          61.5744   85.7725   10.5222 N.ar    1  UNL1       -0.2349
      7 C          60.0728   86.1265    8.5822 C.3     1  UNL1        0.0626
      8 C          59.2514   86.7688    7.5037 C.3     1  UNL1        0.0749
      9 N          59.0680   88.2286    7.2120 N.3     1  UNL1       -0.2969
     10 C          59.6604   89.4069    7.9266 C.3     1  UNL1        0.0734
     11 C          60.5827   89.4162    9.1095 C.3     1  UNL1        0.0462
     12 H          58.0602   88.3757    7.2685 H       1  UNL1        0.1233
     13 C          63.1232   85.2104   12.5310 C.3     1  UNL1        0.0919
     14 C          63.0976   80.8589   11.3849 C.ar    1  UNL1       -0.0000
     15 C          62.4751   81.2978   12.6772 C.ar    1  UNL1       -0.0003
     16 C          62.4836   82.7482   13.0592 C.ar    1  UNL1       -0.0038
     17 C          63.1147   83.7599   12.1490 C.ar    1  UNL1       -0.0146
     18 C          63.7373   83.3210   10.8567 C.ar    1  UNL1       -0.0038
     19 C          63.7287   81.8705   10.4747 C.ar    1  UNL1       -0.0003
@<TRIPOS>BOND
     1    14    15   ar
     2    15    16   ar
     3    16    17   ar
     4    17    13    1
     5    13     1    1
     6     1     2   ar
     7     2     3   ar
     8     3     4   ar
     9     4     5   ar
    10     5     6   ar
    11     5     7    1
    12     7     8    1
    13     8     9    1
    14     9    10    1
    15    10    11    1
    16    17    18   ar
    17    18    19   ar
    18    19    14   ar
    19     6     1   ar
    20    11     4    1
    21     9    12    1
@<TRIPOS>MOLECULE
*****
 19 21 0 0 0
SMALL
GASTEIGER

@<TRIPOS>ATOM
      1 C          62.2120   87.0202   11.0206 C.ar    1  UNL1        0.1431
      2 N          61.9776   88.0529    9.9582 N.ar    1  UNL1       -0.2292
      3 C          62.4580   89.4594   10.1605 C.ar    1  UNL1        0.0972
      4 C          63.1727   89.8332   11.4253 C.ar    1  UNL1        0.0120
      5 C          63.4070   88.8006   12.4876 C.ar    1  UNL1        0.0593
      6 N          62.9267   87.3941   12.2853 N.ar    1  UNL1       -0.2349
      7 C          64.0925   88.9603   13.8122 C.3     1  UNL1        0.0626
      8 C          64.7130   90.1923   14.4016 C.3     1  UNL1        0.0749
      9 N          64.8012   91.5686   13.8119 N.3     1  UNL1       -0.2969
     10 C          64.2908   92.0531   12.4872 C.3     1  UNL1        0.0734
     11 C          63.5660   91.2808   11.4251 C.3     1  UNL1        0.0462
     12 H          65.8001   91.7743   13.7915 H       1  UNL1        0.1233
     13 C          61.7316   85.6137   10.8182 C.3     1  UNL1        0.0919
     14 C          64.3530   82.1499   11.9936 C.ar    1  UNL1       -0.0000
     15 C          63.5934   82.9057   13.0433 C.ar    1  UNL1       -0.0003
     16 C          62.7197   84.0602   12.6515 C.ar    1  UNL1       -0.0038
     17 C          62.6054   84.4591   11.2100 C.ar    1  UNL1       -0.0146
     18 C          63.3649   83.7033   10.1602 C.ar    1  UNL1       -0.0038
     19 C          64.2387   82.5487   10.5520 C.ar    1  UNL1       -0.0003
@<TRIPOS>BOND
     1    14    15   ar
     2    15    16   ar
     3    16    17   ar
     4    17    13    1
     5    13     1    1
     6     1     2   ar
     7     2     3   ar
     8     3     4   ar
     9     4     5   ar
    10     5     6   ar
    11     5     7    1
    12     7     8    1
    13     8     9    1
    14     9    10    1
    15    10    11    1
    16    17    18   ar
    17    18    19   ar
    18    19    14   ar
    19     6     1   ar
    20    11     4    1
    21     9    12    1
@<TRIPOS>MOLECULE
*****
 19 21 0 0 0
SMALL
GASTEIGER

@<TRIPOS>ATOM
      1 C          62.2077   86.3160   10.8634 C.ar    1  UNL1        0.1431
      2 N          62.7733   85.4067    9.8130 N.ar    1  UNL1       -0.2292
      3 C          63.2765   84.0452   10.1915 C.ar    1  UNL1        0.0972
      4 C          63.2140   83.5931   11.6204 C.ar    1  UNL1        0.0120
      5 C          62.6485   84.5024   12.6707 C.ar    1  UNL1        0.0593
      6 N          62.1453   85.8638   12.2923 N.ar    1  UNL1       -0.2349
      7 C          62.4948   84.2507   14.1415 C.3     1  UNL1        0.0626
      8 C          62.8688   83.0275   14.9251 C.3     1  UNL1        0.0749
      9 N          63.4887   81.7540   14.4315 N.3     1  UNL1       -0.2969
     10 C          63.8879   81.3890   13.0324 C.3     1  UNL1        0.0734
     11 C          63.7657   82.2075   11.7813 C.3     1  UNL1        0.0462
     12 H          62.8303   81.0256   14.7076 H       1  UNL1        0.1233
     13 C          61.7045   87.6775   10.4849 C.3     1  UNL1        0.0919
     14 C          63.9358   91.3513   11.8170 C.ar    1  UNL1       -0.0000
     15 C          63.8043   90.1773   12.7414 C.ar    1  UNL1       -0.0003
     16 C          63.0606   88.9528   12.2974 C.ar    1  UNL1       -0.0038
     17 C          62.4483   88.9021   10.9289 C.ar    1  UNL1       -0.0146
     18 C          62.5798   90.0761   10.0045 C.ar    1  UNL1       -0.0038
     19 C          63.3235   91.3007   10.4485 C.ar    1  UNL1       -0.0003
@<TRIPOS>BOND
     1    14    15   ar
     2    15    16   ar
     3    16    17   ar
     4    17    13    1
     5    13     1    1
     6     1     2   ar
     7     2     3   ar
     8     3     4   ar
     9     4     5   ar
    10     5     6   ar
    11     5     7    1
    12     7     8    1
    13     8     9    1
    14     9    10    1
    15    10    11    1
    16    17    18   ar
    17    18    19   ar
    18    19    14   ar
    19     6     1   ar
    20    11     4    1
    21     9    12    1
@<TRIPOS>MOLECULE
*****
 19 21 0 0 0
SMALL
GASTEIGER

@<TRIPOS>ATOM
      1 C          62.7654   85.4279   11.8877 C.ar    1  UNL1        0.1431
      2 N          62.0134   84.8858   10.7085 N.ar    1  UNL1       -0.2292
      3 C          61.2508   85.8166    9.8128 C.ar    1  UNL1        0.0972
      4 C          61.2403   87.2895   10.0965 C.ar    1  UNL1        0.0120
      5 C          61.9923   87.8316   11.2756 C.ar    1  UNL1        0.0593
      6 N          62.7549   86.9008   12.1713 N.ar    1  UNL1       -0.2349
      7 C          62.1123   89.2546   11.7346 C.3     1  UNL1        0.0626
      8 C          61.5098   90.4870   11.1277 C.3     1  UNL1        0.0749
      9 N          60.6387   90.6007    9.9120 N.3     1  UNL1       -0.2969
     10 C          60.1547   89.5101    9.0028 C.3     1  UNL1        0.0734
     11 C          60.4225   88.0365    9.0849 C.3     1  UNL1        0.0462
     12 H          61.1401   91.2420    9.2974 H       1  UNL1        0.1233
     13 C          63.5279   84.4970   12.7833 C.3     1  UNL1        0.0919
     14 C          62.0883   80.2770   13.3909 C.ar    1  UNL1       -0.0000
     15 C          62.9472   80.6135   12.2079 C.ar    1  UNL1       -0.0003
     16 C          63.4270   82.0201   12.0054 C.ar    1  UNL1       -0.0038
     17 C          63.0481   83.0904   12.9858 C.ar    1  UNL1       -0.0146
     18 C          62.1892   82.7539   14.1687 C.ar    1  UNL1       -0.0038
     19 C          61.7094   81.3472   14.3713 C.ar    1  UNL1       -0.0003
@<TRIPOS>BOND
     1    14    15   ar
     2    15    16   ar
     3    16    17   ar
     4    17    13    1
     5    13     1    1
     6     1     2   ar
     7     2     3   ar
     8     3     4   ar
     9     4     5   ar
    10     5     6   ar
    11     5     7    1
    12     7     8    1
    13     8     9    1
    14     9    10    1
    15    10    11    1
    16    17    18   ar
    17    18    19   ar
    18    19    14   ar
    19     6     1   ar
    20    11     4    1
    21     9    12    1
@<TRIPOS>MOLECULE
*****
 19 21 0 0 0
SMALL
GASTEIGER

@<TRIPOS>ATOM
      1 C          63.5056   85.6132   13.2707 C.ar    1  UNL1        0.1431
      2 N          62.7016   85.4422   12.0160 N.ar    1  UNL1       -0.2292
      3 C          62.2919   86.6444   11.2179 C.ar    1  UNL1        0.0972
      4 C          62.6863   88.0177   11.6747 C.ar    1  UNL1        0.0120
      5 C          63.4902   88.1887   12.9293 C.ar    1  UNL1        0.0593
      6 N          63.8999   86.9866   13.7274 N.ar    1  UNL1       -0.2349
      7 C          63.9846   89.4580   13.5576 C.3     1  UNL1        0.0626
      8 C          63.7971   90.8697   13.0862 C.3     1  UNL1        0.0749
      9 N          63.0689   91.3606   11.8703 N.3     1  UNL1       -0.2969
     10 C          62.3483   90.5614   10.8253 C.3     1  UNL1        0.0734
     11 C          62.1780   89.0736   10.7382 C.3     1  UNL1        0.0462
     12 H          63.7685   91.8899   11.3499 H       1  UNL1        0.1233
     13 C          63.9152   84.4110   14.0687 C.3     1  UNL1        0.0919
     14 C          62.0961   80.3927   13.1774 C.ar    1  UNL1       -0.0000
     15 C          61.5278   81.2472   14.2714 C.ar    1  UNL1       -0.0003
     16 C          62.1341   82.5866   14.5685 C.ar    1  UNL1       -0.0038
     17 C          63.3088   83.0716   13.7716 C.ar    1  UNL1       -0.0146
     18 C          63.8772   82.2170   12.6776 C.ar    1  UNL1       -0.0038
     19 C          63.2708   80.8775   12.3805 C.ar    1  UNL1       -0.0003
@<TRIPOS>BOND
     1    14    15   ar
     2    15    16   ar
     3    16    17   ar
     4    17    13    1
     5    13     1    1
     6     1     2   ar
     7     2     3   ar
     8     3     4   ar
     9     4     5   ar
    10     5     6   ar
    11     5     7    1
    12     7     8    1
    13     8     9    1
    14     9    10    1
    15    10    11    1
    16    17    18   ar
    17    18    19   ar
    18    19    14   ar
    19     6     1   ar
    20    11     4    1
    21     9    12    1
@<TRIPOS>MOLECULE
*****
 19 21 0 0 0
SMALL
GASTEIGER

@<TRIPOS>ATOM
      1 C          62.3571   86.1746   10.9052 C.ar    1  UNL1        0.1431
      2 N          62.9096   85.2198    9.8888 N.ar    1  UNL1       -0.2292
      3 C          63.3294   83.8412   10.3052 C.ar    1  UNL1        0.0972
      4 C          63.1968   83.4176   11.7381 C.ar    1  UNL1        0.0120
      5 C          62.6443   84.3724   12.7543 C.ar    1  UNL1        0.0593
      6 N          62.2245   85.7509   12.3380 N.ar    1  UNL1       -0.2349
      7 C          62.4295   84.1543   14.2228 C.3     1  UNL1        0.0626
      8 C          62.7141   82.9273   15.0375 C.3     1  UNL1        0.0749
      9 N          63.2837   81.6156   14.5850 N.3     1  UNL1       -0.2969
     10 C          63.7095   81.2067   13.2060 C.3     1  UNL1        0.0734
     11 C          63.6708   82.0087   11.9390 C.3     1  UNL1        0.0462
     12 H          62.5800   80.9265   14.8500 H       1  UNL1        0.1233
     13 C          61.9374   87.5531   10.4887 C.3     1  UNL1        0.0919
     14 C          58.8979   88.0861    7.2133 C.ar    1  UNL1       -0.0000
     15 C          59.2064   86.7137    7.7342 C.ar    1  UNL1       -0.0003
     16 C          60.2195   86.5360    8.8259 C.ar    1  UNL1       -0.0038
     17 C          60.9242   87.7308    9.3969 C.ar    1  UNL1       -0.0146
     18 C          60.6158   89.1033    8.8761 C.ar    1  UNL1       -0.0038
     19 C          59.6026   89.2809    7.7843 C.ar    1  UNL1       -0.0003
@<TRIPOS>BOND
     1    14    15   ar
     2    15    16   ar
     3    16    17   ar
     4    17    13    1
     5    13     1    1
     6     1     2   ar
     7     2     3   ar
     8     3     4   ar
     9     4     5   ar
    10     5     6   ar
    11     5     7    1
    12     7     8    1
    13     8     9    1
    14     9    10    1
    15    10    11    1
    16    17    18   ar
    17    18    19   ar
    18    19    14   ar
    19     6     1   ar
    20    11     4    1
    21     9    12    1
