@<TRIPOS>MOLECULE
*****
 30 33 0 0 0
SMALL
GASTEIGER

@<TRIPOS>ATOM
      1 C          62.1973   89.8038   11.8981 C.ar    1  UNL1        0.2221
      2 N          61.1665   90.5420   11.0966 N.ar    1  UNL1       -0.2119
      3 C          60.3454   89.8111   10.0760 C.ar    1  UNL1        0.1065
      4 C          60.5553   88.3422    9.8568 C.ar    1  UNL1        0.0756
      5 C          59.9010   87.3624    8.9282 C.ar    1  UNL1        0.1247
      6 N          60.5276   86.0187    9.1559 N.ar    1  UNL1       -0.1664
      7 N          61.5690   86.1680   10.2251 N.ar    1  UNL1       -0.2359
      8 C          61.5861   87.6040   10.6583 C.ar    1  UNL1        0.1652
      9 N          62.4071   88.3348   11.6789 N.ar    1  UNL1       -0.1947
     10 C          62.4404   85.0735   10.7662 C.3     1  UNL1        0.1068
     11 C          62.4022   84.8867   12.2540 C.3     1  UNL1        0.0244
     12 C          63.1489   83.8908   13.0911 C.3     1  UNL1        0.0020
     13 C          64.1182   82.8357   12.6469 C.3     1  UNL1        0.0001
     14 C          64.5802   82.5159   11.2561 C.3     1  UNL1        0.0001
     15 C          64.1870   83.1722    9.9660 C.3     1  UNL1        0.0020
     16 C          63.2347   84.3105    9.7479 C.3     1  UNL1        0.0244
     17 N          63.0184   90.5346   12.9189 N.pl3   1  UNL1       -0.2813
     18 H          62.8788   90.3621   13.8780 H       1  UNL1        0.1551
     19 C          66.1195   93.5153   11.5968 C.ar    1  UNL1        0.1468
     20 C          65.2565   92.8297   10.5794 C.ar    1  UNL1        0.0369
     21 C          64.2228   91.8361   11.0201 C.ar    1  UNL1        0.0192
     22 C          64.0521   91.5282   12.4782 C.ar    1  UNL1        0.0700
     23 C          64.9151   92.2138   13.4956 C.ar    1  UNL1        0.1149
     24 N          65.9488   93.2074   13.0549 N.ar    1  UNL1       -0.2266
     25 N          67.1532   94.5089   11.1561 N.pl3   1  UNL1       -0.2027
     26 H          67.7937   94.8749   11.8081 H       1  UNL1        0.1749
     27 C          67.2691   95.3808    8.2879 C.3     1  UNL1        0.1996
     28 S          67.2112   94.9448    9.7220 S.O2    1  UNL1        0.0569
     29 O          68.3877   94.0424    9.4952 O.2     1  UNL1       -0.1544
     30 O          66.0346   95.8472    9.9488 O.2     1  UNL1       -0.1544
@<TRIPOS>BOND
     1    27    28    1
     2    28    29    2
     3    28    30    2
     4    28    25    1
     5    25    19    1
     6    19    20   ar
     7    20    21   ar
     8    21    22   ar
     9    22    17    1
    10    17     1    1
    11     1     2   ar
    12     2     3   ar
    13     3     4   ar
    14     4     5   ar
    15     5     6   ar
    16     6     7   ar
    17     7    10    1
    18    10    11    1
    19    11    12    1
    20    12    13    1
    21    13    14    1
    22    14    15    1
    23    15    16    1
    24     7     8   ar
    25     8     9   ar
    26    22    23   ar
    27    23    24   ar
    28    24    19   ar
    29     9     1   ar
    30     8     4   ar
    31    16    10    1
    32    25    26    1
    33    17    18    1
@<TRIPOS>MOLECULE
*****
 30 33 0 0 0
SMALL
GASTEIGER

@<TRIPOS>ATOM
      1 C          63.5543   89.2638   13.4370 C.ar    1  UNL1        0.2221
      2 N          64.1649   88.7642   14.7128 N.ar    1  UNL1       -0.2119
      3 C          64.3375   87.2908   14.9349 C.ar    1  UNL1        0.1065
      4 C          63.8996   86.3171   13.8814 C.ar    1  UNL1        0.0756
      5 C          63.9426   84.8189   13.8191 C.ar    1  UNL1        0.1247
      6 N          63.3587   84.3927   12.5049 N.ar    1  UNL1       -0.1664
      7 N          62.9548   85.6274   11.7549 N.ar    1  UNL1       -0.2359
      8 C          63.2891   86.8167   12.6056 C.ar    1  UNL1        0.1652
      9 N          63.1164   88.2900   12.3834 N.ar    1  UNL1       -0.1947
     10 C          62.3268   85.6660   10.3932 C.3     1  UNL1        0.1068
     11 C          63.0965   84.9830    9.3019 C.3     1  UNL1        0.0244
     12 C          62.7417   84.8477    7.8507 C.3     1  UNL1        0.0020
     13 C          61.5294   85.3622    7.1325 C.3     1  UNL1        0.0001
     14 C          60.3727   86.1389    7.6880 C.3     1  UNL1        0.0001
     15 C          60.1424   86.5929    9.0989 C.3     1  UNL1        0.0020
     16 C          61.0121   86.3825   10.3029 C.3     1  UNL1        0.0244
     17 N          63.3817   90.7372   13.2148 N.pl3   1  UNL1       -0.2813
     18 H          62.5657   91.1900   13.5284 H       1  UNL1        0.1551
     19 C          66.5935   93.0875   11.1148 C.ar    1  UNL1        0.1468
     20 C          65.3818   92.6310   10.3577 C.ar    1  UNL1        0.0369
     21 C          64.3112   91.8475   11.0577 C.ar    1  UNL1        0.0192
     22 C          64.4523   91.5206   12.5148 C.ar    1  UNL1        0.0700
     23 C          65.6641   91.9772   13.2720 C.ar    1  UNL1        0.1149
     24 N          66.7346   92.7606   12.5720 N.ar    1  UNL1       -0.2266
     25 N          67.6641   93.8709   10.4149 N.pl3   1  UNL1       -0.2027
     26 H          68.6122   93.6544   10.5678 H       1  UNL1        0.1749
     27 C          66.9162   96.0977    8.5488 C.3     1  UNL1        0.1996
     28 S          67.2901   94.9843    9.4818 S.O2    1  UNL1        0.0569
     29 O          66.8415   95.8121   10.6495 O.2     1  UNL1       -0.1544
     30 O          67.7388   94.1566    8.3142 O.2     1  UNL1       -0.1544
@<TRIPOS>BOND
     1    27    28    1
     2    28    29    2
     3    28    30    2
     4    28    25    1
     5    25    19    1
     6    19    20   ar
     7    20    21   ar
     8    21    22   ar
     9    22    17    1
    10    17     1    1
    11     1     2   ar
    12     2     3   ar
    13     3     4   ar
    14     4     5   ar
    15     5     6   ar
    16     6     7   ar
    17     7    10    1
    18    10    11    1
    19    11    12    1
    20    12    13    1
    21    13    14    1
    22    14    15    1
    23    15    16    1
    24     7     8   ar
    25     8     9   ar
    26    22    23   ar
    27    23    24   ar
    28    24    19   ar
    29     9     1   ar
    30     8     4   ar
    31    16    10    1
    32    25    26    1
    33    17    18    1
@<TRIPOS>MOLECULE
*****
 30 33 0 0 0
SMALL
GASTEIGER

@<TRIPOS>ATOM
      1 C          63.5101   89.2658   13.4076 C.ar    1  UNL1        0.2221
      2 N          64.1166   88.7807   14.6908 N.ar    1  UNL1       -0.2119
      3 C          64.3065   87.3108   14.9219 C.ar    1  UNL1        0.1065
      4 C          63.8899   86.3262   13.8699 C.ar    1  UNL1        0.0756
      5 C          63.9528   84.8284   13.8157 C.ar    1  UNL1        0.1247
      6 N          63.3852   84.3880   12.4990 N.ar    1  UNL1       -0.1664
      7 N          62.9714   85.6135   11.7394 N.ar    1  UNL1       -0.2359
      8 C          63.2833   86.8114   12.5867 C.ar    1  UNL1        0.1652
      9 N          63.0934   88.2812   12.3555 N.ar    1  UNL1       -0.1947
     10 C          62.3541   85.6371   10.3725 C.3     1  UNL1        0.1068
     11 C          61.0312   86.3363   10.2678 C.3     1  UNL1        0.0244
     12 C          60.1688   86.5295    9.0558 C.3     1  UNL1        0.0020
     13 C          60.4163   86.0711    7.6492 C.3     1  UNL1        0.0001
     14 C          61.5873   85.3063    7.1071 C.3     1  UNL1        0.0001
     15 C          62.8000   84.8110    7.8378 C.3     1  UNL1        0.0020
     16 C          63.1413   84.9582    9.2911 C.3     1  UNL1        0.0244
     17 N          63.3202   90.7358   13.1764 N.pl3   1  UNL1       -0.2813
     18 H          62.4912   91.1774   13.4714 H       1  UNL1        0.1551
     19 C          66.5394   93.1267   11.1344 C.ar    1  UNL1        0.1468
     20 C          66.6762   92.7697   12.5849 C.ar    1  UNL1        0.0369
     21 C          65.6031   91.9727   13.2656 C.ar    1  UNL1        0.0192
     22 C          64.3932   91.5327   12.4958 C.ar    1  UNL1        0.0700
     23 C          64.2565   91.8897   11.0453 C.ar    1  UNL1        0.1149
     24 N          65.3295   92.6867   10.3646 N.ar    1  UNL1       -0.2266
     25 N          67.6125   93.9237   10.4538 N.pl3   1  UNL1       -0.2027
     26 H          68.5603   93.7122   10.6157 H       1  UNL1        0.1749
     27 C          66.8705   96.1619    8.5991 C.3     1  UNL1        0.1996
     28 S          67.2415   95.0428    9.5264 S.O2    1  UNL1        0.0569
     29 O          67.7050   94.2267    8.3563 O.2     1  UNL1       -0.1544
     30 O          66.7780   95.8588   10.6966 O.2     1  UNL1       -0.1544
@<TRIPOS>BOND
     1    27    28    1
     2    28    29    2
     3    28    30    2
     4    28    25    1
     5    25    19    1
     6    19    20   ar
     7    20    21   ar
     8    21    22   ar
     9    22    17    1
    10    17     1    1
    11     1     2   ar
    12     2     3   ar
    13     3     4   ar
    14     4     5   ar
    15     5     6   ar
    16     6     7   ar
    17     7    10    1
    18    10    11    1
    19    11    12    1
    20    12    13    1
    21    13    14    1
    22    14    15    1
    23    15    16    1
    24     7     8   ar
    25     8     9   ar
    26    22    23   ar
    27    23    24   ar
    28    24    19   ar
    29     9     1   ar
    30     8     4   ar
    31    16    10    1
    32    25    26    1
    33    17    18    1
@<TRIPOS>MOLECULE
*****
 30 33 0 0 0
SMALL
GASTEIGER

@<TRIPOS>ATOM
      1 C          61.6512   89.5787   12.1048 C.ar    1  UNL1        0.2221
      2 N          60.7681   90.3455   11.1655 N.ar    1  UNL1       -0.2119
      3 C          60.2454   89.6882    9.9227 C.ar    1  UNL1        0.1065
      4 C          60.6059   88.2641    9.6190 C.ar    1  UNL1        0.0756
      5 C          60.2439   87.3582    8.4795 C.ar    1  UNL1        0.1247
      6 N          60.9032   86.0316    8.7146 N.ar    1  UNL1       -0.1664
      7 N          61.6728   86.1176    9.9993 N.ar    1  UNL1       -0.2359
      8 C          61.4890   87.4974   10.5583 C.ar    1  UNL1        0.1652
      9 N          62.0116   88.1547   11.8011 N.ar    1  UNL1       -0.1947
     10 C          62.4837   85.0171   10.6167 C.3     1  UNL1        0.1068
     11 C          62.3438   84.8600   12.1019 C.3     1  UNL1        0.0244
     12 C          63.0129   83.8663   13.0044 C.3     1  UNL1        0.0020
     13 C          63.9873   82.7840   12.6447 C.3     1  UNL1        0.0001
     14 C          64.5331   82.4283   11.2936 C.3     1  UNL1        0.0001
     15 C          64.2394   83.0669    9.9685 C.3     1  UNL1        0.0020
     16 C          63.3274   84.2190    9.6673 C.3     1  UNL1        0.0244
     17 N          62.1739   90.2360   13.3477 N.pl3   1  UNL1       -0.2813
     18 H          61.6077   90.2901   14.1513 H       1  UNL1        0.1551
     19 C          66.3299   91.9606   13.4034 C.ar    1  UNL1        0.1468
     20 C          65.8538   91.1142   14.5465 C.ar    1  UNL1        0.0369
     21 C          64.4684   90.5393   14.5280 C.ar    1  UNL1        0.0192
     22 C          63.5592   90.8108   13.3663 C.ar    1  UNL1        0.0700
     23 C          64.0354   91.6573   12.2231 C.ar    1  UNL1        0.1149
     24 N          65.4207   92.2322   12.2417 N.ar    1  UNL1       -0.2266
     25 N          67.7152   92.5354   13.4220 N.pl3   1  UNL1       -0.2027
     26 H          68.2598   92.5340   12.6018 H       1  UNL1        0.1749
     27 C          68.8265   93.6895   15.9583 C.3     1  UNL1        0.1996
     28 S          68.2709   93.1124   14.6902 S.O2    1  UNL1        0.0569
     29 O          67.0198   93.9200   14.8709 O.2     1  UNL1       -0.1544
     30 O          69.5219   92.3049   14.5094 O.2     1  UNL1       -0.1544
@<TRIPOS>BOND
     1    27    28    1
     2    28    29    2
     3    28    30    2
     4    28    25    1
     5    25    19    1
     6    19    20   ar
     7    20    21   ar
     8    21    22   ar
     9    22    17    1
    10    17     1    1
    11     1     2   ar
    12     2     3   ar
    13     3     4   ar
    14     4     5   ar
    15     5     6   ar
    16     6     7   ar
    17     7    10    1
    18    10    11    1
    19    11    12    1
    20    12    13    1
    21    13    14    1
    22    14    15    1
    23    15    16    1
    24     7     8   ar
    25     8     9   ar
    26    22    23   ar
    27    23    24   ar
    28    24    19   ar
    29     9     1   ar
    30     8     4   ar
    31    16    10    1
    32    25    26    1
    33    17    18    1
@<TRIPOS>MOLECULE
*****
 30 33 0 0 0
SMALL
GASTEIGER

@<TRIPOS>ATOM
      1 C          63.7957   89.1582   14.8437 C.ar    1  UNL1        0.2221
      2 N          64.6457   90.3673   15.0992 N.ar    1  UNL1       -0.2119
      3 C          64.8805   91.3642   14.0034 C.ar    1  UNL1        0.1065
      4 C          64.2652   91.1520   12.6519 C.ar    1  UNL1        0.0756
      5 C          64.3190   91.9567   11.3871 C.ar    1  UNL1        0.1247
      6 N          63.5022   91.2448   10.3498 N.ar    1  UNL1       -0.1664
      7 N          62.9436   90.0003   10.9736 N.ar    1  UNL1       -0.2359
      8 C          63.4152   89.9429   12.3964 C.ar    1  UNL1        0.1652
      9 N          63.1804   88.9460   13.4922 N.ar    1  UNL1       -0.1947
     10 C          62.0672   88.9903   10.2939 C.3     1  UNL1        0.1068
     11 C          62.4255   87.5532   10.5309 C.3     1  UNL1        0.0244
     12 C          61.7536   86.3218    9.9997 C.3     1  UNL1        0.0020
     13 C          60.5573   86.2235    9.1002 C.3     1  UNL1        0.0001
     14 C          59.7374   87.3322    8.5098 C.3     1  UNL1        0.0001
     15 C          59.9115   88.8131    8.6730 C.3     1  UNL1        0.0020
     16 C          60.9483   89.5510    9.4670 C.3     1  UNL1        0.0244
     17 N          63.5608   88.1611   15.9395 N.pl3   1  UNL1       -0.2813
     18 H          63.3310   88.4705   16.8455 H       1  UNL1        0.1551
     19 C          63.9067   83.7564   15.0861 C.ar    1  UNL1        0.1468
     20 C          64.8680   84.7201   14.4560 C.ar    1  UNL1        0.0369
     21 C          64.7527   86.1884   14.7405 C.ar    1  UNL1        0.0192
     22 C          63.6761   86.6929   15.6551 C.ar    1  UNL1        0.0700
     23 C          62.7148   85.7291   16.2852 C.ar    1  UNL1        0.1149
     24 N          62.8301   84.2609   16.0007 N.ar    1  UNL1       -0.2266
     25 N          64.0220   82.2882   14.8017 N.pl3   1  UNL1       -0.2027
     26 H          64.5696   81.7151   15.3857 H       1  UNL1        0.1749
     27 C          62.5841   81.0978   12.4532 C.3     1  UNL1        0.1996
     28 S          63.3031   81.6930   13.6274 S.O2    1  UNL1        0.0569
     29 O          64.4658   82.0334   12.7430 O.2     1  UNL1       -0.1544
     30 O          62.1404   81.3526   14.5118 O.2     1  UNL1       -0.1544
@<TRIPOS>BOND
     1    27    28    1
     2    28    29    2
     3    28    30    2
     4    28    25    1
     5    25    19    1
     6    19    20   ar
     7    20    21   ar
     8    21    22   ar
     9    22    17    1
    10    17     1    1
    11     1     2   ar
    12     2     3   ar
    13     3     4   ar
    14     4     5   ar
    15     5     6   ar
    16     6     7   ar
    17     7    10    1
    18    10    11    1
    19    11    12    1
    20    12    13    1
    21    13    14    1
    22    14    15    1
    23    15    16    1
    24     7     8   ar
    25     8     9   ar
    26    22    23   ar
    27    23    24   ar
    28    24    19   ar
    29     9     1   ar
    30     8     4   ar
    31    16    10    1
    32    25    26    1
    33    17    18    1
@<TRIPOS>MOLECULE
*****
 30 33 0 0 0
SMALL
GASTEIGER

@<TRIPOS>ATOM
      1 C          63.9667   88.4372   14.1119 C.ar    1  UNL1        0.2221
      2 N          64.6034   87.3194   14.8833 N.ar    1  UNL1       -0.2119
      3 C          64.4396   85.9015   14.4221 C.ar    1  UNL1        0.1065
      4 C          63.6391   85.6014   13.1895 C.ar    1  UNL1        0.0756
      5 C          63.3064   84.3126   12.4978 C.ar    1  UNL1        0.1247
      6 N          62.4641   84.6339   11.2990 N.ar    1  UNL1       -0.1664
      7 N          62.2763   86.1213   11.2497 N.ar    1  UNL1       -0.2359
      8 C          63.0024   86.7192   12.4181 C.ar    1  UNL1        0.1652
      9 N          63.1662   88.1371   12.8793 N.ar    1  UNL1       -0.1947
     10 C          61.4987   86.8780   10.2140 C.3     1  UNL1        0.1068
     11 C          61.5203   88.3719   10.3465 C.3     1  UNL1        0.0244
     12 C          60.8509   89.3975    9.4805 C.3     1  UNL1        0.0020
     13 C          59.9945   89.1824    8.2679 C.3     1  UNL1        0.0001
     14 C          59.5961   87.8886    7.6219 C.3     1  UNL1        0.0001
     15 C          59.9556   86.4904    8.0289 C.3     1  UNL1        0.0020
     16 C          60.8023   86.0406    9.1825 C.3     1  UNL1        0.0244
     17 N          64.1304   89.8551   14.5731 N.pl3   1  UNL1       -0.2813
     18 H          63.7556   90.1377   15.4385 H       1  UNL1        0.1551
     19 C          66.3350   92.8174   12.0011 C.ar    1  UNL1        0.1468
     20 C          65.0301   92.2437   11.5340 C.ar    1  UNL1        0.0369
     21 C          64.2952   91.2562   12.3914 C.ar    1  UNL1        0.0192
     22 C          64.8652   90.8425   13.7158 C.ar    1  UNL1        0.0700
     23 C          66.1702   91.4163   14.1828 C.ar    1  UNL1        0.1149
     24 N          66.9050   92.4037   13.3255 N.ar    1  UNL1       -0.2266
     25 N          67.0698   93.8048   11.1438 N.pl3   1  UNL1       -0.2027
     26 H          67.1200   94.7500   11.4143 H       1  UNL1        0.1749
     27 C          68.3863   92.8991    8.6048 C.3     1  UNL1        0.1996
     28 S          67.7281   93.3520    9.8743 S.O2    1  UNL1        0.0569
     29 O          66.8834   94.3144    9.0930 O.2     1  UNL1       -0.1544
     30 O          68.5727   92.3895   10.6555 O.2     1  UNL1       -0.1544
@<TRIPOS>BOND
     1    27    28    1
     2    28    29    2
     3    28    30    2
     4    28    25    1
     5    25    19    1
     6    19    20   ar
     7    20    21   ar
     8    21    22   ar
     9    22    17    1
    10    17     1    1
    11     1     2   ar
    12     2     3   ar
    13     3     4   ar
    14     4     5   ar
    15     5     6   ar
    16     6     7   ar
    17     7    10    1
    18    10    11    1
    19    11    12    1
    20    12    13    1
    21    13    14    1
    22    14    15    1
    23    15    16    1
    24     7     8   ar
    25     8     9   ar
    26    22    23   ar
    27    23    24   ar
    28    24    19   ar
    29     9     1   ar
    30     8     4   ar
    31    16    10    1
    32    25    26    1
    33    17    18    1
@<TRIPOS>MOLECULE
*****
 30 33 0 0 0
SMALL
GASTEIGER

@<TRIPOS>ATOM
      1 C          63.5386   89.5678   13.2699 C.ar    1  UNL1        0.2221
      2 N          63.2925   89.5107   14.7484 N.ar    1  UNL1       -0.2119
      3 C          63.9844   90.4785   15.6618 C.ar    1  UNL1        0.1065
      4 C          64.9226   91.5035   15.0967 C.ar    1  UNL1        0.0756
      5 C          65.7416   92.5801   15.7450 C.ar    1  UNL1        0.1247
      6 N          66.4939   93.3026   14.6670 N.ar    1  UNL1       -0.1664
      7 N          66.1399   92.6725   13.3526 N.ar    1  UNL1       -0.2359
      8 C          65.1687   91.5606   13.6182 C.ar    1  UNL1        0.1652
      9 N          64.4768   90.5928   12.7048 N.ar    1  UNL1       -0.1947
     10 C          66.6648   93.0824   12.0086 C.3     1  UNL1        0.1068
     11 C          67.5116   92.0652   11.3027 C.3     1  UNL1        0.0244
     12 C          68.1763   92.1696    9.9621 C.3     1  UNL1        0.0020
     13 C          68.1582   93.3170    8.9962 C.3     1  UNL1        0.0001
     14 C          67.4711   94.6434    9.1323 C.3     1  UNL1        0.0001
     15 C          66.6324   95.1500   10.2680 C.3     1  UNL1        0.0020
     16 C          66.2735   94.4553   11.5480 C.3     1  UNL1        0.0244
     17 N          62.8467   88.5999   12.3563 N.pl3   1  UNL1       -0.2813
     18 H          62.2520   88.9328   11.6459 H       1  UNL1        0.1551
     19 C          63.4890   84.1750   12.8635 C.ar    1  UNL1        0.1468
     20 C          62.6687   84.6872   11.7168 C.ar    1  UNL1        0.0369
     21 C          62.4546   86.1622   11.5478 C.ar    1  UNL1        0.0192
     22 C          63.0607   87.1249   12.5254 C.ar    1  UNL1        0.0700
     23 C          63.8810   86.6127   13.6721 C.ar    1  UNL1        0.1149
     24 N          64.0951   85.1377   13.8411 N.ar    1  UNL1       -0.2266
     25 N          63.7030   82.7000   13.0325 N.pl3   1  UNL1       -0.2027
     26 H          64.5809   82.3035   12.8290 H       1  UNL1        0.1749
     27 C          61.4562   80.9582   13.9906 C.3     1  UNL1        0.1996
     28 S          62.5796   81.8291   13.5116 S.O2    1  UNL1        0.0569
     29 O          62.7454   82.3777   14.8977 O.2     1  UNL1       -0.1544
     30 O          62.4138   81.2805   12.1254 O.2     1  UNL1       -0.1544
@<TRIPOS>BOND
     1    27    28    1
     2    28    29    2
     3    28    30    2
     4    28    25    1
     5    25    19    1
     6    19    20   ar
     7    20    21   ar
     8    21    22   ar
     9    22    17    1
    10    17     1    1
    11     1     2   ar
    12     2     3   ar
    13     3     4   ar
    14     4     5   ar
    15     5     6   ar
    16     6     7   ar
    17     7    10    1
    18    10    11    1
    19    11    12    1
    20    12    13    1
    21    13    14    1
    22    14    15    1
    23    15    16    1
    24     7     8   ar
    25     8     9   ar
    26    22    23   ar
    27    23    24   ar
    28    24    19   ar
    29     9     1   ar
    30     8     4   ar
    31    16    10    1
    32    25    26    1
    33    17    18    1
@<TRIPOS>MOLECULE
*****
 30 33 0 0 0
SMALL
GASTEIGER

@<TRIPOS>ATOM
      1 C          63.5622   85.0048   14.4160 C.ar    1  UNL1        0.2221
      2 N          64.2928   83.6949   14.4323 N.ar    1  UNL1       -0.2119
      3 C          64.4698   82.9191   13.1608 C.ar    1  UNL1        0.1065
      4 C          63.9161   83.4531   11.8731 C.ar    1  UNL1        0.0756
      5 C          63.9351   82.9155   10.4728 C.ar    1  UNL1        0.1247
      6 N          63.2161   83.8931    9.5912 N.ar    1  UNL1       -0.1664
      7 N          62.7529   85.0350   10.4466 N.ar    1  UNL1       -0.2359
      8 C          63.1855   84.7630   11.8568 C.ar    1  UNL1        0.1652
      9 N          63.0085   85.5388   13.1283 N.ar    1  UNL1       -0.1947
     10 C          61.9908   86.2376    9.9746 C.3     1  UNL1        0.1068
     11 C          60.9212   85.9722    8.9570 C.3     1  UNL1        0.0244
     12 C          59.9957   86.9503    8.2961 C.3     1  UNL1        0.0020
     13 C          59.9112   88.4354    8.4895 C.3     1  UNL1        0.0001
     14 C          60.7314   89.3091    9.3916 C.3     1  UNL1        0.0001
     15 C          61.8385   88.9137   10.3231 C.3     1  UNL1        0.0020
     16 C          62.3990   87.5467   10.5825 C.3     1  UNL1        0.0244
     17 N          63.3852   85.7807   15.6876 N.pl3   1  UNL1       -0.2813
     18 H          63.1652   85.3109   16.5243 H       1  UNL1        0.1551
     19 C          63.8596   90.2556   15.6774 C.ar    1  UNL1        0.1468
     20 C          64.4560   89.4357   14.5720 C.ar    1  UNL1        0.0369
     21 C          64.2979   87.9440   14.5753 C.ar    1  UNL1        0.0192
     22 C          63.5433   87.2723   15.6842 C.ar    1  UNL1        0.0700
     23 C          62.9469   88.0923   16.7896 C.ar    1  UNL1        0.1149
     24 N          63.1051   89.5839   16.7862 N.ar    1  UNL1       -0.2266
     25 N          64.0178   91.7472   15.6740 N.pl3   1  UNL1       -0.2027
     26 H          63.2345   92.3249   15.5261 H       1  UNL1        0.1749
     27 C          66.7211   92.9700   16.1177 C.3     1  UNL1        0.1996
     28 S          65.3694   92.3586   15.8958 S.O2    1  UNL1        0.0569
     29 O          65.1126   92.3903   17.3733 O.2     1  UNL1       -0.1544
     30 O          65.6263   92.3269   14.4183 O.2     1  UNL1       -0.1544
@<TRIPOS>BOND
     1    27    28    1
     2    28    29    2
     3    28    30    2
     4    28    25    1
     5    25    19    1
     6    19    20   ar
     7    20    21   ar
     8    21    22   ar
     9    22    17    1
    10    17     1    1
    11     1     2   ar
    12     2     3   ar
    13     3     4   ar
    14     4     5   ar
    15     5     6   ar
    16     6     7   ar
    17     7    10    1
    18    10    11    1
    19    11    12    1
    20    12    13    1
    21    13    14    1
    22    14    15    1
    23    15    16    1
    24     7     8   ar
    25     8     9   ar
    26    22    23   ar
    27    23    24   ar
    28    24    19   ar
    29     9     1   ar
    30     8     4   ar
    31    16    10    1
    32    25    26    1
    33    17    18    1
@<TRIPOS>MOLECULE
*****
 30 33 0 0 0
SMALL
GASTEIGER

@<TRIPOS>ATOM
      1 C          63.2258   89.7682   14.2992 C.ar    1  UNL1        0.2221
      2 N          63.2568   89.9423   15.7887 N.ar    1  UNL1       -0.2119
      3 C          63.3847   88.7437   16.6814 C.ar    1  UNL1        0.1065
      4 C          63.4817   87.3709   16.0846 C.ar    1  UNL1        0.0756
      5 C          63.6147   86.0128   16.7074 C.ar    1  UNL1        0.1247
      6 N          63.6660   84.9993   15.6028 N.ar    1  UNL1       -0.1664
      7 N          63.5646   85.7311   14.2973 N.ar    1  UNL1       -0.2359
      8 C          63.4507   87.1968   14.5951 C.ar    1  UNL1        0.1652
      9 N          63.3228   88.3954   13.7024 N.ar    1  UNL1       -0.1947
     10 C          63.5752   85.1068   12.9335 C.3     1  UNL1        0.1068
     11 C          62.7621   85.8118   11.8886 C.3     1  UNL1        0.0244
     12 C          62.5706   85.4441   10.4470 C.3     1  UNL1        0.0020
     13 C          63.1448   84.2807    9.6943 C.3     1  UNL1        0.0001
     14 C          64.0524   83.1975   10.1972 C.3     1  UNL1        0.0001
     15 C          64.6100   83.0103   11.5770 C.3     1  UNL1        0.0020
     16 C          64.3976   83.8600   12.7948 C.3     1  UNL1        0.0244
     17 N          63.0979   90.9668   13.4065 N.pl3   1  UNL1       -0.2813
     18 H          62.2250   91.4091   13.2982 H       1  UNL1        0.1551
     19 C          66.7039   92.5412   11.2230 C.ar    1  UNL1        0.1468
     20 C          66.7593   92.3288   12.7068 C.ar    1  UNL1        0.0369
     21 C          65.5572   91.8040   13.4347 C.ar    1  UNL1        0.0192
     22 C          64.2999   91.4916   12.6787 C.ar    1  UNL1        0.0700
     23 C          64.2446   91.7040   11.1948 C.ar    1  UNL1        0.1149
     24 N          65.4466   92.2288   10.4670 N.ar    1  UNL1       -0.2266
     25 N          67.9059   93.0660   10.4952 N.pl3   1  UNL1       -0.2027
     26 H          68.8037   92.7318   10.7223 H       1  UNL1        0.1749
     27 C          67.5744   95.1340    8.3473 C.3     1  UNL1        0.1996
     28 S          67.7402   94.1000    9.4212 S.O2    1  UNL1        0.0569
     29 O          68.1800   93.1015    8.3919 O.2     1  UNL1       -0.1544
     30 O          67.3004   95.0986   10.4505 O.2     1  UNL1       -0.1544
@<TRIPOS>BOND
     1    27    28    1
     2    28    29    2
     3    28    30    2
     4    28    25    1
     5    25    19    1
     6    19    20   ar
     7    20    21   ar
     8    21    22   ar
     9    22    17    1
    10    17     1    1
    11     1     2   ar
    12     2     3   ar
    13     3     4   ar
    14     4     5   ar
    15     5     6   ar
    16     6     7   ar
    17     7    10    1
    18    10    11    1
    19    11    12    1
    20    12    13    1
    21    13    14    1
    22    14    15    1
    23    15    16    1
    24     7     8   ar
    25     8     9   ar
    26    22    23   ar
    27    23    24   ar
    28    24    19   ar
    29     9     1   ar
    30     8     4   ar
    31    16    10    1
    32    25    26    1
    33    17    18    1
