@<TRIPOS>MOLECULE
*****
 41 46 0 0 0
SMALL
GASTEIGER

@<TRIPOS>ATOM
      1 C          59.2318   88.7518    7.2956 C.2     1  UNL1        0.2252
      2 O          58.2700   87.6097    7.1527 O.2     1  UNL1       -0.2749
      3 N          60.1416   88.8216    8.4862 N.am    1  UNL1       -0.2794
      4 C          60.0896   87.7493    9.5338 C.3     1  UNL1        0.0953
      5 C          60.9993   87.8192   10.7243 C.3     1  UNL1        0.0442
      6 C          61.9612   88.9613   10.8673 C.3     1  UNL1        0.0933
      7 C          62.0132   90.0335    9.8197 C.3     1  UNL1        0.0442
      8 C          61.1034   89.9637    8.6291 C.3     1  UNL1        0.0953
      9 N          62.8710   89.0312   12.0578 N.ar    1  UNL1       -0.2814
     10 C          63.4887   90.2754   12.6236 C.ar    1  UNL1        0.3365
     11 O          63.3051   91.6684   12.0983 O.2     1  UNL1       -0.2459
     12 N          64.3223   89.8822   13.8071 N.ar    1  UNL1       -0.2432
     13 C          64.2198   88.3949   13.9726 C.ar    1  UNL1        0.0877
     14 C          64.8273   87.4516   14.9681 C.ar    1  UNL1        0.0488
     15 C          64.5378   85.9823   14.8825 C.ar    1  UNL1        0.1417
     16 F          65.1453   85.0389   15.8781 F       1  UNL1       -0.2041
     17 C          63.6409   85.4563   13.8014 C.ar    1  UNL1        0.0312
     18 C          63.0334   86.3996   12.8059 C.ar    1  UNL1        0.0211
     19 C          63.3228   87.8689   12.8915 C.ar    1  UNL1        0.0801
     20 C          65.1186   90.8129   14.6730 C.ar    1  UNL1        0.1511
     21 C          66.5779   91.0275   14.3996 C.ar    1  UNL1        0.0375
     22 C          67.3742   91.9581   15.2655 C.ar    1  UNL1        0.0047
     23 C          66.7113   92.6742   16.4047 C.ar    1  UNL1        0.0208
     24 C          65.2522   92.4595   16.6781 C.ar    1  UNL1        0.1005
     25 N          64.4559   91.5289   15.8122 N.ar    1  UNL1       -0.2263
     26 N          59.3880   91.9686    4.1528 N.3     1  UNL1       -0.2689
     27 C          60.6387   91.2358    4.5388 C.3     1  UNL1        0.0729
     28 C          60.5866   90.1635    5.5864 C.3     1  UNL1        0.0264
     29 C          59.2839   89.8241    6.2480 C.3     1  UNL1        0.0795
     30 C          58.0332   90.5568    5.8620 C.3     1  UNL1        0.0264
     31 C          58.0853   91.6291    4.8144 C.3     1  UNL1        0.0729
     32 C          59.4400   93.0409    3.1052 C.3     1  UNL1        0.0993
     33 N          64.4664   92.9743    1.7895 N.pl3   1  UNL1       -0.3426
     34 C          63.0197   92.9750    1.3931 C.ar    1  UNL1        0.1251
     35 C          61.9531   93.0076    2.4473 C.ar    1  UNL1        0.0310
     36 C          60.5065   93.0083    2.0509 C.ar    1  UNL1       -0.0018
     37 C          60.1263   92.9765    0.6002 C.ar    1  UNL1        0.0179
     38 C          61.1929   92.9439   -0.4540 C.ar    1  UNL1        0.1000
     39 N          62.6396   92.9432   -0.0576 N.ar    1  UNL1       -0.2296
     40 H          64.7159   92.9952    2.7416 H       1  UNL1        0.1437
     41 H          65.1664   92.9529    1.0975 H       1  UNL1        0.1437
@<TRIPOS>BOND
     1    33    34    1
     2    34    35   ar
     3    35    36   ar
     4    36    32    1
     5    32    26    1
     6    26    27    1
     7    27    28    1
     8    28    29    1
     9    29     1    1
    10     1     2    2
    11     1     3   am
    12     3     4    1
    13     4     5    1
    14     5     6    1
    15     6     9    1
    16     9    10   ar
    17    10    11    2
    18    10    12   ar
    19    12    20    1
    20    20    21   ar
    21    21    22   ar
    22    22    23   ar
    23    23    24   ar
    24    24    25   ar
    25    12    13   ar
    26    13    14   ar
    27    14    15   ar
    28    15    16    1
    29    15    17   ar
    30    17    18   ar
    31    18    19   ar
    32     6     7    1
    33     7     8    1
    34    29    30    1
    35    30    31    1
    36    36    37   ar
    37    37    38   ar
    38    38    39   ar
    39    39    34   ar
    40    31    26    1
    41     8     3    1
    42    19     9   ar
    43    25    20   ar
    44    19    13   ar
    45    33    40    1
    46    33    41    1
@<TRIPOS>MOLECULE
*****
 41 46 0 0 0
SMALL
GASTEIGER

@<TRIPOS>ATOM
      1 C          62.6046   86.5790   16.6310 C.2     1  UNL1        0.2252
      2 O          61.6955   86.7410   17.8130 O.2     1  UNL1       -0.2749
      3 N          63.3194   87.7706   16.0658 N.am    1  UNL1       -0.2794
      4 C          63.1249   89.1239   16.6826 C.3     1  UNL1        0.0953
      5 C          63.8396   90.3155   16.1174 C.3     1  UNL1        0.0442
      6 C          64.7489   90.1536   14.9354 C.3     1  UNL1        0.0933
      7 C          64.9433   88.8002   14.3186 C.3     1  UNL1        0.0442
      8 C          64.2286   87.6087   14.8838 C.3     1  UNL1        0.0953
      9 N          65.4636   91.3451   14.3702 N.ar    1  UNL1       -0.2814
     10 C          65.1536   92.0238   13.0689 C.ar    1  UNL1        0.3365
     11 O          64.0744   91.6301   12.1043 O.2     1  UNL1       -0.2459
     12 N          66.1122   93.1653   12.9016 N.ar    1  UNL1       -0.2432
     13 C          67.0147   93.1921   14.0995 C.ar    1  UNL1        0.0877
     14 C          68.1497   94.0955   14.4810 C.ar    1  UNL1        0.0488
     15 C          68.8838   93.8740   15.7701 C.ar    1  UNL1        0.1417
     16 F          70.0189   94.7774   16.1517 F       1  UNL1       -0.2041
     17 C          68.4829   92.7491   16.6778 C.ar    1  UNL1        0.0312
     18 C          67.3479   91.8456   16.2963 C.ar    1  UNL1        0.0211
     19 C          66.6138   92.0672   15.0071 C.ar    1  UNL1        0.0801
     20 C          66.1600   94.1135   11.7403 C.ar    1  UNL1        0.1511
     21 C          66.5329   93.6113   10.3769 C.ar    1  UNL1        0.0375
     22 C          66.5808   94.5596    9.2156 C.ar    1  UNL1        0.0047
     23 C          66.2557   96.0099    9.4176 C.ar    1  UNL1        0.0208
     24 C          65.8828   96.5120   10.7810 C.ar    1  UNL1        0.1005
     25 N          65.8350   95.5638   11.9423 N.ar    1  UNL1       -0.2263
     26 N          63.1880   82.5188   14.7805 N.3     1  UNL1       -0.2689
     27 C          61.8113   83.1057   14.8828 C.3     1  UNL1        0.0729
     28 C          61.6168   84.4591   15.4997 C.3     1  UNL1        0.0264
     29 C          62.7991   85.2256   16.0142 C.3     1  UNL1        0.0795
     30 C          64.1758   84.6388   15.9119 C.3     1  UNL1        0.0264
     31 C          64.3702   83.2854   15.2950 C.3     1  UNL1        0.0729
     32 C          63.3825   81.1654   14.1637 C.3     1  UNL1        0.0993
     33 N          62.4628   78.2333    9.9736 N.pl3   1  UNL1       -0.3426
     34 C          62.8799   79.5415   10.5777 C.ar    1  UNL1        0.1251
     35 C          62.9226   79.6994   12.0687 C.ar    1  UNL1        0.0310
     36 C          63.3398   81.0076   12.6727 C.ar    1  UNL1       -0.0018
     37 C          63.7143   82.1577   11.7856 C.ar    1  UNL1        0.0179
     38 C          63.6716   81.9997   10.2946 C.ar    1  UNL1        0.1000
     39 N          63.2544   80.6916    9.6906 N.ar    1  UNL1       -0.2296
     40 H          62.2170   77.4784   10.5558 H       1  UNL1        0.1437
     41 H          62.4347   78.1297    8.9950 H       1  UNL1        0.1437
@<TRIPOS>BOND
     1    33    34    1
     2    34    35   ar
     3    35    36   ar
     4    36    32    1
     5    32    26    1
     6    26    27    1
     7    27    28    1
     8    28    29    1
     9    29     1    1
    10     1     2    2
    11     1     3   am
    12     3     4    1
    13     4     5    1
    14     5     6    1
    15     6     9    1
    16     9    10   ar
    17    10    11    2
    18    10    12   ar
    19    12    20    1
    20    20    21   ar
    21    21    22   ar
    22    22    23   ar
    23    23    24   ar
    24    24    25   ar
    25    12    13   ar
    26    13    14   ar
    27    14    15   ar
    28    15    16    1
    29    15    17   ar
    30    17    18   ar
    31    18    19   ar
    32     6     7    1
    33     7     8    1
    34    29    30    1
    35    30    31    1
    36    36    37   ar
    37    37    38   ar
    38    38    39   ar
    39    39    34   ar
    40    31    26    1
    41     8     3    1
    42    19     9   ar
    43    25    20   ar
    44    19    13   ar
    45    33    40    1
    46    33    41    1
@<TRIPOS>MOLECULE
*****
 41 46 0 0 0
SMALL
GASTEIGER

@<TRIPOS>ATOM
      1 C          58.7140   90.5321    5.9258 C.2     1  UNL1        0.2252
      2 O          57.2645   90.8704    6.1110 O.2     1  UNL1       -0.2749
      3 N          59.4941   91.1609    4.8095 N.am    1  UNL1       -0.2794
      4 C          58.8247   92.1279    3.8785 C.3     1  UNL1        0.0953
      5 C          59.6048   92.7566    2.7622 C.3     1  UNL1        0.0442
      6 C          61.0544   92.4184    2.5769 C.3     1  UNL1        0.0933
      7 C          61.7238   91.4514    3.5079 C.3     1  UNL1        0.0442
      8 C          60.9437   90.8227    4.6242 C.3     1  UNL1        0.0953
      9 N          61.8345   93.0471    1.4606 N.ar    1  UNL1       -0.2814
     10 C          61.6038   92.8330   -0.0060 C.ar    1  UNL1        0.3365
     11 O          60.5524   91.9525   -0.6138 O.2     1  UNL1       -0.2459
     12 N          62.6090   93.6539   -0.7580 N.ar    1  UNL1       -0.2432
     13 C          63.4610   94.3754    0.2437 C.ar    1  UNL1        0.0877
     14 C          64.6108   95.3254    0.0845 C.ar    1  UNL1        0.0488
     15 C          65.2819   95.9004    1.2965 C.ar    1  UNL1        0.1417
     16 F          66.4318   96.8505    1.1373 F       1  UNL1       -0.2041
     17 C          64.8032   95.5254    2.6677 C.ar    1  UNL1        0.0312
     18 C          63.6535   94.5754    2.8269 C.ar    1  UNL1        0.0211
     19 C          62.9823   94.0004    1.6149 C.ar    1  UNL1        0.0801
     20 C          62.7394   93.7386   -2.2500 C.ar    1  UNL1        0.1511
     21 C          63.8052   92.9534   -2.9555 C.ar    1  UNL1        0.0375
     22 C          63.9356   93.0380   -4.4474 C.ar    1  UNL1        0.0047
     23 C          63.0002   93.9077   -5.2339 C.ar    1  UNL1        0.0208
     24 C          61.9344   94.6928   -4.5284 C.ar    1  UNL1        0.1005
     25 N          61.8040   94.6082   -3.0365 N.ar    1  UNL1       -0.2263
     26 N          60.7224   87.6312    8.7188 N.3     1  UNL1       -0.2689
     27 C          59.9915   87.1253    7.5104 C.3     1  UNL1        0.0729
     28 C          59.3221   88.0923    6.5794 C.3     1  UNL1        0.0264
     29 C          59.3835   89.5652    6.8568 C.3     1  UNL1        0.0795
     30 C          60.1142   90.0711    8.0651 C.3     1  UNL1        0.0264
     31 C          60.7837   89.1041    8.9961 C.3     1  UNL1        0.0729
     32 C          61.3918   86.6642    9.6497 C.3     1  UNL1        0.0993
     33 N          63.8789   85.7559   14.1207 N.pl3   1  UNL1       -0.3426
     34 C          63.3891   86.7174   13.0787 C.ar    1  UNL1        0.1251
     35 C          62.6353   86.2101   11.8851 C.ar    1  UNL1        0.0310
     36 C          62.1455   87.1716   10.8432 C.ar    1  UNL1       -0.0018
     37 C          62.4094   88.6404   10.9949 C.ar    1  UNL1        0.0179
     38 C          63.1631   89.1477   12.1884 C.ar    1  UNL1        0.1000
     39 N          63.6529   88.1862   13.2303 N.ar    1  UNL1       -0.2296
     40 H          63.7058   84.7919   14.0212 H       1  UNL1        0.1437
     41 H          64.3736   86.0889   14.9040 H       1  UNL1        0.1437
@<TRIPOS>BOND
     1    33    34    1
     2    34    35   ar
     3    35    36   ar
     4    36    32    1
     5    32    26    1
     6    26    27    1
     7    27    28    1
     8    28    29    1
     9    29     1    1
    10     1     2    2
    11     1     3   am
    12     3     4    1
    13     4     5    1
    14     5     6    1
    15     6     9    1
    16     9    10   ar
    17    10    11    2
    18    10    12   ar
    19    12    20    1
    20    20    21   ar
    21    21    22   ar
    22    22    23   ar
    23    23    24   ar
    24    24    25   ar
    25    12    13   ar
    26    13    14   ar
    27    14    15   ar
    28    15    16    1
    29    15    17   ar
    30    17    18   ar
    31    18    19   ar
    32     6     7    1
    33     7     8    1
    34    29    30    1
    35    30    31    1
    36    36    37   ar
    37    37    38   ar
    38    38    39   ar
    39    39    34   ar
    40    31    26    1
    41     8     3    1
    42    19     9   ar
    43    25    20   ar
    44    19    13   ar
    45    33    40    1
    46    33    41    1
