@<TRIPOS>MOLECULE
*****
 29 32 0 0 0
SMALL
GASTEIGER

@<TRIPOS>ATOM
      1 N          64.3732   84.8506   15.6856 N.3     1  UNL1       -0.2908
      2 H          65.1114   84.5551   16.3244 H       1  UNL1        0.1237
      3 C          63.5274   85.8409   16.4296 C.3     1  UNL1        0.1341
      4 C          63.8470   89.3300   14.7596 C.ar    1  UNL1        0.1449
      5 C          63.3130   89.7033   16.1108 C.ar    1  UNL1        0.0403
      6 C          63.1283   88.4416   16.9007 C.ar    1  UNL1        0.0375
      7 C          63.5481   87.2887   16.0380 C.ar    1  UNL1        0.1388
      8 O          63.9923   87.8378   14.7146 O.2     1  UNL1       -0.4564
      9 O          65.1699   93.1378   10.3154 O.3     1  UNL1       -0.5055
     10 C          64.8392   92.1859   11.4264 C.ar    1  UNL1        0.1337
     11 C          65.6174   92.2295   12.7079 C.ar    1  UNL1        0.0367
     12 C          65.2867   91.2776   13.8190 C.ar    1  UNL1        0.0061
     13 C          64.1777   90.2820   13.6485 C.ar    1  UNL1        0.0347
     14 C          63.3995   90.2384   12.3669 C.ar    1  UNL1        0.0061
     15 C          63.7302   91.1903   11.2559 C.ar    1  UNL1        0.0367
     16 H          65.8626   93.7597   10.4219 H       1  UNL1        0.2922
     17 C          63.7539   83.6015   15.1321 C.3     1  UNL1        0.0737
     18 C          62.8036   83.6850   13.9744 C.3     1  UNL1        0.0451
     19 C          63.3118   83.5165   12.5733 C.ar    1  UNL1        0.0013
     20 C          64.2871   82.4760   12.1083 C.ar    1  UNL1        0.0963
     21 N          64.5121   82.6754   10.6387 N.ar    1  UNL1       -0.2273
     22 C          63.6758   83.8391   10.1955 C.ar    1  UNL1        0.1404
     23 N          63.4940   84.4925    8.8576 N.ar    1  UNL1       -0.3356
     24 C          62.5704   85.6658    8.7154 C.ar    1  UNL1        0.1035
     25 C          61.8286   86.1857    9.9110 C.ar    1  UNL1        0.1572
     26 F          60.9049   87.3590    9.7687 F       1  UNL1       -0.2026
     27 C          62.0104   85.5322   11.2489 C.ar    1  UNL1        0.0339
     28 C          62.9340   84.3589   11.3911 C.ar    1  UNL1        0.0338
     29 H          63.9809   84.1514    8.0729 H       1  UNL1        0.1675
@<TRIPOS>BOND
     1     9    10    1
     2    10    11   ar
     3    11    12   ar
     4    12    13   ar
     5    13     4    1
     6     4     5   ar
     7     5     6   ar
     8     6     7   ar
     9     7     3    1
    10     3     1    1
    11     1    17    1
    12    17    18    1
    13    18    19    1
    14    19    20   ar
    15    20    21   ar
    16    21    22   ar
    17    22    23   ar
    18    23    24   ar
    19    24    25   ar
    20    25    26    1
    21    25    27   ar
    22    27    28   ar
    23     7     8   ar
    24    13    14   ar
    25    14    15   ar
    26    15    10   ar
    27     8     4   ar
    28    28    19   ar
    29    28    22    1
    30     9    16    1
    31     1     2    1
    32    23    29    1
@<TRIPOS>MOLECULE
*****
 29 32 0 0 0
SMALL
GASTEIGER

@<TRIPOS>ATOM
      1 N          63.6657   86.1114   15.1395 N.3     1  UNL1       -0.2908
      2 H          64.1174   85.8110   16.0033 H       1  UNL1        0.1237
      3 C          63.4485   84.8787   14.3130 C.3     1  UNL1        0.1341
      4 C          62.0512   85.7990   10.8107 C.ar    1  UNL1        0.1449
      5 C          62.8731   84.5870   10.4855 C.ar    1  UNL1        0.0403
      6 C          63.4965   84.0948   11.7580 C.ar    1  UNL1        0.0375
      7 C          63.0600   85.0025   12.8695 C.ar    1  UNL1        0.1388
      8 O          62.1667   86.0557   12.2840 O.2     1  UNL1       -0.4564
      9 O          58.8617   89.0493    6.9039 O.3     1  UNL1       -0.5055
     10 C          59.6590   88.2367    7.8806 C.ar    1  UNL1        0.1337
     11 C          60.3293   88.9071    9.0430 C.ar    1  UNL1        0.0367
     12 C          61.1267   88.0946   10.0197 C.ar    1  UNL1        0.0061
     13 C          61.2538   86.6115    9.8339 C.ar    1  UNL1        0.0347
     14 C          60.5835   85.9411    8.6715 C.ar    1  UNL1        0.0061
     15 C          59.7862   86.7536    7.6949 C.ar    1  UNL1        0.0367
     16 H          58.7823   89.9756    7.0200 H       1  UNL1        0.2922
     17 C          64.4832   87.2450   14.5948 C.3     1  UNL1        0.0737
     18 C          64.1210   88.6610   14.9326 C.3     1  UNL1        0.0451
     19 C          64.1681   89.7206   13.8720 C.ar    1  UNL1        0.0013
     20 C          63.4072   89.7086   12.5793 C.ar    1  UNL1        0.0963
     21 N          63.7532   90.9588   11.8262 N.ar    1  UNL1       -0.2273
     22 C          64.7278   91.7435   12.6534 C.ar    1  UNL1        0.1404
     23 N          65.4150   93.0560   12.4187 N.ar    1  UNL1       -0.3356
     24 C          66.3586   93.6033   13.4483 C.ar    1  UNL1        0.1035
     25 C          66.6150   92.8380   14.7127 C.ar    1  UNL1        0.1572
     26 F          67.5586   93.3853   15.7423 F       1  UNL1       -0.2026
     27 C          65.9278   91.5255   14.9474 C.ar    1  UNL1        0.0339
     28 C          64.9843   90.9783   13.9178 C.ar    1  UNL1        0.0338
     29 H          65.2467   93.5583   11.5888 H       1  UNL1        0.1675
@<TRIPOS>BOND
     1     9    10    1
     2    10    11   ar
     3    11    12   ar
     4    12    13   ar
     5    13     4    1
     6     4     5   ar
     7     5     6   ar
     8     6     7   ar
     9     7     3    1
    10     3     1    1
    11     1    17    1
    12    17    18    1
    13    18    19    1
    14    19    20   ar
    15    20    21   ar
    16    21    22   ar
    17    22    23   ar
    18    23    24   ar
    19    24    25   ar
    20    25    26    1
    21    25    27   ar
    22    27    28   ar
    23     7     8   ar
    24    13    14   ar
    25    14    15   ar
    26    15    10   ar
    27     8     4   ar
    28    28    19   ar
    29    28    22    1
    30     9    16    1
    31     1     2    1
    32    23    29    1
@<TRIPOS>MOLECULE
*****
 29 32 0 0 0
SMALL
GASTEIGER

@<TRIPOS>ATOM
      1 N          63.6463   88.2958   15.4936 N.3     1  UNL1       -0.2908
      2 H          62.6610   88.2157   15.2423 H       1  UNL1        0.1237
      3 C          64.2706   89.2348   14.5044 C.3     1  UNL1        0.1341
      4 C          62.3492   89.0746   11.1357 C.ar    1  UNL1        0.1449
      5 C          62.9636   90.4406   11.0542 C.ar    1  UNL1        0.0403
      6 C          63.7581   90.6668   12.3063 C.ar    1  UNL1        0.0375
      7 C          63.6348   89.4408   13.1615 C.ar    1  UNL1        0.1388
      8 O          62.7641   88.4566   12.4380 O.2     1  UNL1       -0.4564
      9 O          58.8474   86.5290    6.9815 O.3     1  UNL1       -0.5055
     10 C          59.7228   87.1654    8.0200 C.ar    1  UNL1        0.1337
     11 C          60.5855   86.3102    8.9000 C.ar    1  UNL1        0.0367
     12 C          61.4610   86.9467    9.9385 C.ar    1  UNL1        0.0061
     13 C          61.4737   88.4382   10.0971 C.ar    1  UNL1        0.0347
     14 C          60.6110   89.2934    9.2171 C.ar    1  UNL1        0.0061
     15 C          59.7356   88.6570    8.1786 C.ar    1  UNL1        0.0367
     16 H          58.8394   85.5973    6.8824 H       1  UNL1        0.2922
     17 C          64.1720   86.8981   15.6355 C.3     1  UNL1        0.0737
     18 C          64.2739   86.0092   14.4315 C.3     1  UNL1        0.0451
     19 C          63.5890   84.6747   14.4243 C.ar    1  UNL1        0.0013
     20 C          62.8271   84.0685   15.5654 C.ar    1  UNL1        0.0963
     21 N          62.3130   82.7313   15.1210 N.ar    1  UNL1       -0.2273
     22 C          62.7572   82.5110   13.7053 C.ar    1  UNL1        0.1404
     23 N          62.5454   81.3719   12.7527 N.ar    1  UNL1       -0.3356
     24 C          63.1222   81.4339   11.3694 C.ar    1  UNL1        0.1035
     25 C          63.9108   82.6350   10.9388 C.ar    1  UNL1        0.1572
     26 F          64.4877   82.6970    9.5555 F       1  UNL1       -0.2026
     27 C          64.1226   83.7741   11.8914 C.ar    1  UNL1        0.0339
     28 C          63.5458   83.7121   13.2747 C.ar    1  UNL1        0.0338
     29 H          62.0278   80.5835   13.0353 H       1  UNL1        0.1675
@<TRIPOS>BOND
     1     9    10    1
     2    10    11   ar
     3    11    12   ar
     4    12    13   ar
     5    13     4    1
     6     4     5   ar
     7     5     6   ar
     8     6     7   ar
     9     7     3    1
    10     3     1    1
    11     1    17    1
    12    17    18    1
    13    18    19    1
    14    19    20   ar
    15    20    21   ar
    16    21    22   ar
    17    22    23   ar
    18    23    24   ar
    19    24    25   ar
    20    25    26    1
    21    25    27   ar
    22    27    28   ar
    23     7     8   ar
    24    13    14   ar
    25    14    15   ar
    26    15    10   ar
    27     8     4   ar
    28    28    19   ar
    29    28    22    1
    30     9    16    1
    31     1     2    1
    32    23    29    1
@<TRIPOS>MOLECULE
*****
 29 32 0 0 0
SMALL
GASTEIGER

@<TRIPOS>ATOM
      1 N          60.8502   86.6728   11.5643 N.3     1  UNL1       -0.2908
      2 H          60.0144   86.1443   11.3141 H       1  UNL1        0.1237
      3 C          60.7003   88.0346   10.9537 C.3     1  UNL1        0.1341
      4 C          63.3627   90.5252   12.2854 C.ar    1  UNL1        0.1449
      5 C          63.3562   90.8622   10.8237 C.ar    1  UNL1        0.0403
      6 C          62.3580   89.9701   10.1470 C.ar    1  UNL1        0.0375
      7 C          61.7477   89.0820   11.1903 C.ar    1  UNL1        0.1388
      8 O          62.3686   89.4250   12.5120 O.2     1  UNL1       -0.4564
      9 O          66.7676   93.1223   16.4881 O.3     1  UNL1       -0.5055
     10 C          65.9164   92.4730   15.4374 C.ar    1  UNL1        0.1337
     11 C          64.7717   91.5908   15.8392 C.ar    1  UNL1        0.0367
     12 C          63.9206   90.9416   14.7885 C.ar    1  UNL1        0.0061
     13 C          64.2140   91.1745   13.3361 C.ar    1  UNL1        0.0347
     14 C          65.3587   92.0567   12.9343 C.ar    1  UNL1        0.0061
     15 C          66.2099   92.7060   13.9849 C.ar    1  UNL1        0.0367
     16 H          66.5843   92.9768   17.3954 H       1  UNL1        0.2922
     17 C          62.0278   85.8157   11.2058 C.3     1  UNL1        0.0737
     18 C          63.1142   85.5750   12.2118 C.3     1  UNL1        0.0451
     19 C          62.9167   84.5633   13.3015 C.ar    1  UNL1        0.0013
     20 C          62.8050   84.8575   14.7681 C.ar    1  UNL1        0.0963
     21 N          62.6154   83.5557   15.4888 N.ar    1  UNL1       -0.2273
     22 C          62.6099   82.4570   14.4676 C.ar    1  UNL1        0.1404
     23 N          62.4594   80.9699   14.5941 N.ar    1  UNL1       -0.3356
     24 C          62.4951   80.1056   13.3686 C.ar    1  UNL1        0.1035
     25 C          62.6813   80.7284   12.0168 C.ar    1  UNL1        0.1572
     26 F          62.7170   79.8640   10.7913 F       1  UNL1       -0.2026
     27 C          62.8318   82.2154   11.8903 C.ar    1  UNL1        0.0339
     28 C          62.7961   83.0797   13.1157 C.ar    1  UNL1        0.0338
     29 H          62.3372   80.5612   15.4813 H       1  UNL1        0.1675
@<TRIPOS>BOND
     1     9    10    1
     2    10    11   ar
     3    11    12   ar
     4    12    13   ar
     5    13     4    1
     6     4     5   ar
     7     5     6   ar
     8     6     7   ar
     9     7     3    1
    10     3     1    1
    11     1    17    1
    12    17    18    1
    13    18    19    1
    14    19    20   ar
    15    20    21   ar
    16    21    22   ar
    17    22    23   ar
    18    23    24   ar
    19    24    25   ar
    20    25    26    1
    21    25    27   ar
    22    27    28   ar
    23     7     8   ar
    24    13    14   ar
    25    14    15   ar
    26    15    10   ar
    27     8     4   ar
    28    28    19   ar
    29    28    22    1
    30     9    16    1
    31     1     2    1
    32    23    29    1
@<TRIPOS>MOLECULE
*****
 29 32 0 0 0
SMALL
GASTEIGER

@<TRIPOS>ATOM
      1 N          61.7888   89.7576   12.3657 N.3     1  UNL1       -0.2908
      2 H          61.5479   89.0810   13.0900 H       1  UNL1        0.1237
      3 C          61.5802   89.0733   11.0473 C.3     1  UNL1        0.1341
      4 C          62.4261   85.3022   11.4054 C.ar    1  UNL1        0.1449
      5 C          62.4547   85.4653    9.9145 C.ar    1  UNL1        0.0403
      6 C          62.1413   86.8979    9.5990 C.ar    1  UNL1        0.0375
      7 C          61.9190   87.6201   10.8947 C.ar    1  UNL1        0.1388
      8 O          62.0951   86.6339   12.0112 O.2     1  UNL1       -0.4564
      9 O          63.4554   80.2159   14.4172 O.3     1  UNL1       -0.5055
     10 C          63.1981   81.4875   13.6642 C.ar    1  UNL1        0.1337
     11 C          63.0144   82.7762   14.4094 C.ar    1  UNL1        0.0367
     12 C          62.7571   84.0478   13.6564 C.ar    1  UNL1        0.0061
     13 C          62.6835   84.0306   12.1583 C.ar    1  UNL1        0.0347
     14 C          62.8671   82.7418   11.4132 C.ar    1  UNL1        0.0061
     15 C          63.1244   81.4702   12.1661 C.ar    1  UNL1        0.0367
     16 H          63.5014   80.2267   15.3530 H       1  UNL1        0.2922
     17 C          63.1383   90.3086   12.7194 C.3     1  UNL1        0.0737
     18 C          63.8423   89.8326   13.9556 C.3     1  UNL1        0.0451
     19 C          64.3378   90.8248   14.9656 C.ar    1  UNL1        0.0013
     20 C          63.5751   91.3278   16.1552 C.ar    1  UNL1        0.0963
     21 N          64.4490   92.3021   16.8880 N.ar    1  UNL1       -0.2273
     22 C          65.7518   92.4013   16.1513 C.ar    1  UNL1        0.1404
     23 N          66.9918   93.2051   16.4088 N.ar    1  UNL1       -0.3356
     24 C          68.1631   93.0958   15.4782 C.ar    1  UNL1        0.1035
     25 C          68.0944   92.1828   14.2900 C.ar    1  UNL1        0.1572
     26 F          69.2657   92.0736   13.3593 F       1  UNL1       -0.2026
     27 C          66.8544   91.3791   14.0325 C.ar    1  UNL1        0.0339
     28 C          65.6831   91.4883   14.9631 C.ar    1  UNL1        0.0338
     29 H          67.0369   93.8043   17.1886 H       1  UNL1        0.1675
@<TRIPOS>BOND
     1     9    10    1
     2    10    11   ar
     3    11    12   ar
     4    12    13   ar
     5    13     4    1
     6     4     5   ar
     7     5     6   ar
     8     6     7   ar
     9     7     3    1
    10     3     1    1
    11     1    17    1
    12    17    18    1
    13    18    19    1
    14    19    20   ar
    15    20    21   ar
    16    21    22   ar
    17    22    23   ar
    18    23    24   ar
    19    24    25   ar
    20    25    26    1
    21    25    27   ar
    22    27    28   ar
    23     7     8   ar
    24    13    14   ar
    25    14    15   ar
    26    15    10   ar
    27     8     4   ar
    28    28    19   ar
    29    28    22    1
    30     9    16    1
    31     1     2    1
    32    23    29    1
@<TRIPOS>MOLECULE
*****
 29 32 0 0 0
SMALL
GASTEIGER

@<TRIPOS>ATOM
      1 N          62.9198   89.6998   13.9755 N.3     1  UNL1       -0.2908
      2 H          62.0069   90.1162   13.7918 H       1  UNL1        0.1237
      3 C          63.7265   90.7307   14.7078 C.3     1  UNL1        0.1341
      4 C          66.2150   92.7413   12.5100 C.ar    1  UNL1        0.1449
      5 C          67.1524   92.0721   13.4710 C.ar    1  UNL1        0.0403
      6 C          66.3342   91.2375   14.4112 C.ar    1  UNL1        0.0375
      7 C          64.8913   91.3909   14.0314 C.ar    1  UNL1        0.1388
      8 O          64.8176   92.3203   12.8563 O.2     1  UNL1       -0.4564
      9 O          67.7804   96.4511    8.0617 O.3     1  UNL1       -0.5055
     10 C          67.3890   95.5237    9.1737 C.ar    1  UNL1        0.1337
     11 C          66.6962   96.0619   10.3904 C.ar    1  UNL1        0.0367
     12 C          66.3049   95.1344   11.5024 C.ar    1  UNL1        0.0061
     13 C          66.6064   93.6687   11.3978 C.ar    1  UNL1        0.0347
     14 C          67.2993   93.1305   10.1812 C.ar    1  UNL1        0.0061
     15 C          67.6906   94.0580    9.0691 C.ar    1  UNL1        0.0367
     16 H          67.5920   97.3667    8.1270 H       1  UNL1        0.2922
     17 C          63.4144   89.1481   12.6712 C.3     1  UNL1        0.0737
     18 C          62.5519   89.2304   11.4467 C.3     1  UNL1        0.0451
     19 C          61.9836   87.9798   10.8441 C.ar    1  UNL1        0.0013
     20 C          62.2516   86.5780   11.3060 C.ar    1  UNL1        0.0963
     21 N          61.4812   85.6433   10.4212 N.ar    1  UNL1       -0.2273
     22 C          60.7372   86.4674    9.4125 C.ar    1  UNL1        0.1404
     23 N          59.8171   86.0894    8.2898 N.ar    1  UNL1       -0.3356
     24 C          59.2075   87.1554    7.4286 C.ar    1  UNL1        0.1035
     25 C          59.5180   88.5995    7.6899 C.ar    1  UNL1        0.1572
     26 F          58.9084   89.6656    6.8286 F       1  UNL1       -0.2026
     27 C          60.4381   88.9775    8.8126 C.ar    1  UNL1        0.0339
     28 C          61.0477   87.9114    9.6739 C.ar    1  UNL1        0.0338
     29 H          59.6133   85.1416    8.1183 H       1  UNL1        0.1675
@<TRIPOS>BOND
     1     9    10    1
     2    10    11   ar
     3    11    12   ar
     4    12    13   ar
     5    13     4    1
     6     4     5   ar
     7     5     6   ar
     8     6     7   ar
     9     7     3    1
    10     3     1    1
    11     1    17    1
    12    17    18    1
    13    18    19    1
    14    19    20   ar
    15    20    21   ar
    16    21    22   ar
    17    22    23   ar
    18    23    24   ar
    19    24    25   ar
    20    25    26    1
    21    25    27   ar
    22    27    28   ar
    23     7     8   ar
    24    13    14   ar
    25    14    15   ar
    26    15    10   ar
    27     8     4   ar
    28    28    19   ar
    29    28    22    1
    30     9    16    1
    31     1     2    1
    32    23    29    1
@<TRIPOS>MOLECULE
*****
 29 32 0 0 0
SMALL
GASTEIGER

@<TRIPOS>ATOM
      1 N          60.9150   89.5237   12.3080 N.3     1  UNL1       -0.2908
      2 H          60.4323   88.8372   12.8877 H       1  UNL1        0.1237
      3 C          61.0772   88.9067   10.9505 C.3     1  UNL1        0.1341
      4 C          62.3092   85.2488   11.3590 C.ar    1  UNL1        0.1449
      5 C          62.4872   85.4514    9.8834 C.ar    1  UNL1        0.0403
      6 C          62.0474   86.8464    9.5509 C.ar    1  UNL1        0.0375
      7 C          61.5975   87.5058   10.8208 C.ar    1  UNL1        0.1388
      8 O          61.7593   86.5184   11.9383 O.2     1  UNL1       -0.4564
      9 O          63.5743   80.2387   14.4085 O.3     1  UNL1       -0.5055
     10 C          63.2580   81.4912   13.6462 C.ar    1  UNL1        0.1337
     11 C          63.2404   81.4721   12.1464 C.ar    1  UNL1        0.0367
     12 C          62.9241   82.7246   11.3841 C.ar    1  UNL1        0.0061
     13 C          62.6255   83.9962   12.1215 C.ar    1  UNL1        0.0347
     14 C          62.6431   84.0154   13.6212 C.ar    1  UNL1        0.0061
     15 C          62.9594   82.7629   14.3836 C.ar    1  UNL1        0.0367
     16 H          63.7609   79.4444   13.9479 H       1  UNL1        0.2922
     17 C          62.1225   89.9688   13.0786 C.3     1  UNL1        0.0737
     18 C          63.4862   89.8636   12.4625 C.3     1  UNL1        0.0451
     19 C          64.2432   91.1068   12.0999 C.ar    1  UNL1        0.0013
     20 C          64.2535   91.7722   10.7556 C.ar    1  UNL1        0.0963
     21 N          65.1395   92.9795   10.8428 N.ar    1  UNL1       -0.2273
     22 C          65.6767   93.0602   12.2410 C.ar    1  UNL1        0.1404
     23 N          66.5988   94.0380   12.9071 N.ar    1  UNL1       -0.3356
     24 C          66.9668   93.8584   14.3501 C.ar    1  UNL1        0.1035
     25 C          66.4129   92.7010   15.1270 C.ar    1  UNL1        0.1572
     26 F          66.7810   92.5215   16.5700 F       1  UNL1       -0.2026
     27 C          65.4908   91.7232   14.4609 C.ar    1  UNL1        0.0339
     28 C          65.1228   91.9028   13.0179 C.ar    1  UNL1        0.0338
     29 H          66.9624   94.7976   12.3972 H       1  UNL1        0.1675
@<TRIPOS>BOND
     1     9    10    1
     2    10    11   ar
     3    11    12   ar
     4    12    13   ar
     5    13     4    1
     6     4     5   ar
     7     5     6   ar
     8     6     7   ar
     9     7     3    1
    10     3     1    1
    11     1    17    1
    12    17    18    1
    13    18    19    1
    14    19    20   ar
    15    20    21   ar
    16    21    22   ar
    17    22    23   ar
    18    23    24   ar
    19    24    25   ar
    20    25    26    1
    21    25    27   ar
    22    27    28   ar
    23     7     8   ar
    24    13    14   ar
    25    14    15   ar
    26    15    10   ar
    27     8     4   ar
    28    28    19   ar
    29    28    22    1
    30     9    16    1
    31     1     2    1
    32    23    29    1
@<TRIPOS>MOLECULE
*****
 29 32 0 0 0
SMALL
GASTEIGER

@<TRIPOS>ATOM
      1 N          60.5771   90.6474   11.5636 N.3     1  UNL1       -0.2908
      2 H          60.5881   90.4799   12.5697 H       1  UNL1        0.1237
      3 C          59.6731   89.6126   10.9622 C.3     1  UNL1        0.1341
      4 C          61.4992   86.2158   10.5238 C.ar    1  UNL1        0.1449
      5 C          60.6676   86.2608    9.2762 C.ar    1  UNL1        0.0403
      6 C          59.8823   87.5388    9.2887 C.ar    1  UNL1        0.0375
      7 C          60.2286   88.2835   10.5438 C.ar    1  UNL1        0.1388
      8 O          61.2280   87.4658   11.3071 O.2     1  UNL1       -0.4564
      9 O          65.2524   81.8088   12.1028 O.3     1  UNL1       -0.5055
     10 C          64.3141   82.9105   11.7081 C.ar    1  UNL1        0.1337
     11 C          64.1833   83.3037   10.2665 C.ar    1  UNL1        0.0367
     12 C          63.2450   84.4054    9.8717 C.ar    1  UNL1        0.0061
     13 C          62.4376   85.1140   10.9186 C.ar    1  UNL1        0.0347
     14 C          62.5684   84.7209   12.3602 C.ar    1  UNL1        0.0061
     15 C          63.5066   83.6191   12.7550 C.ar    1  UNL1        0.0367
     16 H          65.7568   81.3662   11.4489 H       1  UNL1        0.2922
     17 C          62.0084   90.7394   11.1243 C.3     1  UNL1        0.0737
     18 C          63.0889   90.1080   11.9514 C.3     1  UNL1        0.0451
     19 C          64.0306   90.9697   12.7393 C.ar    1  UNL1        0.0013
     20 C          64.2795   90.8824   14.2159 C.ar    1  UNL1        0.0963
     21 N          65.2914   91.9287   14.5780 N.ar    1  UNL1       -0.2273
     22 C          65.6679   92.6628   13.3252 C.ar    1  UNL1        0.1404
     23 N          66.6196   93.7942   13.0724 N.ar    1  UNL1       -0.3356
     24 C          66.7920   94.3330   11.6832 C.ar    1  UNL1        0.1035
     25 C          66.0128   93.7403   10.5468 C.ar    1  UNL1        0.1572
     26 F          66.1853   94.2791    9.1575 F       1  UNL1       -0.2026
     27 C          65.0611   92.6088   10.7996 C.ar    1  UNL1        0.0339
     28 C          64.8886   92.0700   12.1888 C.ar    1  UNL1        0.0338
     29 H          67.1310   94.1833   13.8183 H       1  UNL1        0.1675
@<TRIPOS>BOND
     1     9    10    1
     2    10    11   ar
     3    11    12   ar
     4    12    13   ar
     5    13     4    1
     6     4     5   ar
     7     5     6   ar
     8     6     7   ar
     9     7     3    1
    10     3     1    1
    11     1    17    1
    12    17    18    1
    13    18    19    1
    14    19    20   ar
    15    20    21   ar
    16    21    22   ar
    17    22    23   ar
    18    23    24   ar
    19    24    25   ar
    20    25    26    1
    21    25    27   ar
    22    27    28   ar
    23     7     8   ar
    24    13    14   ar
    25    14    15   ar
    26    15    10   ar
    27     8     4   ar
    28    28    19   ar
    29    28    22    1
    30     9    16    1
    31     1     2    1
    32    23    29    1
@<TRIPOS>MOLECULE
*****
 29 32 0 0 0
SMALL
GASTEIGER

@<TRIPOS>ATOM
      1 N          61.3686   90.2402   10.0971 N.3     1  UNL1       -0.2908
      2 H          60.6864   90.9975   10.0575 H       1  UNL1        0.1237
      3 C          60.6237   89.0081   10.5178 C.3     1  UNL1        0.1341
      4 C          62.2006   85.5135   11.1235 C.ar    1  UNL1        0.1449
      5 C          62.4781   85.7073    9.6621 C.ar    1  UNL1        0.0403
      6 C          61.9211   87.0400    9.2575 C.ar    1  UNL1        0.0375
      7 C          61.2995   87.6698   10.4685 C.ar    1  UNL1        0.1388
      8 O          61.4721   86.7264   11.6218 O.2     1  UNL1       -0.4564
      9 O          63.7348   80.7271   14.4002 O.3     1  UNL1       -0.5055
     10 C          63.3513   81.9237   13.5810 C.ar    1  UNL1        0.1337
     11 C          63.0307   83.2238   14.2569 C.ar    1  UNL1        0.0367
     12 C          62.6471   84.4203   13.4377 C.ar    1  UNL1        0.0061
     13 C          62.5842   84.3168   11.9426 C.ar    1  UNL1        0.0347
     14 C          62.9048   83.0167   11.2667 C.ar    1  UNL1        0.0061
     15 C          63.2883   81.8202   12.0859 C.ar    1  UNL1        0.0367
     16 H          63.7741   80.7918   15.3341 H       1  UNL1        0.2922
     17 C          62.5204   90.7375   10.9193 C.3     1  UNL1        0.0737
     18 C          63.6879   91.4010   10.2508 C.3     1  UNL1        0.0451
     19 C          64.7095   92.1283   11.0738 C.ar    1  UNL1        0.0013
     20 C          65.6888   93.1451   10.5666 C.ar    1  UNL1        0.0963
     21 N          66.5157   93.6116   11.7279 N.ar    1  UNL1       -0.2273
     22 C          66.0475   92.8832   12.9527 C.ar    1  UNL1        0.1404
     23 N          66.4934   92.9363   14.3839 N.ar    1  UNL1       -0.3356
     24 C          65.8231   92.0726   15.4108 C.ar    1  UNL1        0.1035
     25 C          64.7068   91.1558   15.0065 C.ar    1  UNL1        0.1572
     26 F          64.0365   90.2920   16.0335 F       1  UNL1       -0.2026
     27 C          64.2609   91.1027   13.5753 C.ar    1  UNL1        0.0339
     28 C          64.9312   91.9664   12.5484 C.ar    1  UNL1        0.0338
     29 H          67.2261   93.5380   14.6492 H       1  UNL1        0.1675
@<TRIPOS>BOND
     1     9    10    1
     2    10    11   ar
     3    11    12   ar
     4    12    13   ar
     5    13     4    1
     6     4     5   ar
     7     5     6   ar
     8     6     7   ar
     9     7     3    1
    10     3     1    1
    11     1    17    1
    12    17    18    1
    13    18    19    1
    14    19    20   ar
    15    20    21   ar
    16    21    22   ar
    17    22    23   ar
    18    23    24   ar
    19    24    25   ar
    20    25    26    1
    21    25    27   ar
    22    27    28   ar
    23     7     8   ar
    24    13    14   ar
    25    14    15   ar
    26    15    10   ar
    27     8     4   ar
    28    28    19   ar
    29    28    22    1
    30     9    16    1
    31     1     2    1
    32    23    29    1
