@<TRIPOS>MOLECULE
*****
 36 40 0 0 0
SMALL
GASTEIGER

@<TRIPOS>ATOM
      1 C          62.6954   88.9824   16.8302 C.3     1  UNL1        0.1588
      2 N          63.0943   89.6826   15.5651 N.ar    1  UNL1       -0.1973
      3 N          64.3560   90.4651   15.3506 N.ar    1  UNL1       -0.1459
      4 C          64.3431   90.9894   13.9453 C.ar    1  UNL1        0.1860
      5 C          65.3234   91.8250   13.1768 C.ar    1  UNL1        0.0422
      6 C          65.0341   92.2022   11.7541 C.ar    1  UNL1        0.0606
      7 C          63.7645   91.7438   11.1000 C.ar    1  UNL1        0.2756
      8 O          63.4751   92.1210    9.6773 O.2     1  UNL1       -0.2655
      9 N          62.7841   90.9082   11.8686 N.ar    1  UNL1       -0.2229
     10 N          63.0735   90.5310   13.2912 N.ar    1  UNL1       -0.1765
     11 C          62.3017   89.7233   14.2923 C.ar    1  UNL1        0.3670
     12 O          60.9709   89.0710   14.0611 O.2     1  UNL1       -0.2429
     13 C          66.5931   92.2834   13.8309 C.ar    1  UNL1        0.0032
     14 C          66.5577   93.3872   14.8459 C.ar    1  UNL1        0.0010
     15 C          67.8273   93.8456   15.5000 C.ar    1  UNL1        0.0114
     16 C          69.1324   93.2002   15.1391 C.ar    1  UNL1        0.0577
     17 CL         70.4020   93.6586   15.7932 Cl      1  UNL1       -0.0822
     18 C          69.1678   92.0964   14.1240 C.ar    1  UNL1        0.0114
     19 C          67.8982   91.6380   13.4699 C.ar    1  UNL1        0.0010
     20 C          66.0144   93.0378   10.9855 C.ar    1  UNL1        0.0078
     21 C          65.9305   94.5344   11.0418 C.ar    1  UNL1        0.0208
     22 C          66.9108   95.3700   10.2733 C.ar    1  UNL1        0.0989
     23 N          67.9751   94.7090    9.4484 N.ar    1  UNL1       -0.2423
     24 C          68.0591   93.2125    9.3921 C.ar    1  UNL1        0.0989
     25 C          67.0787   92.3768   10.1607 C.ar    1  UNL1        0.0208
     26 C          61.5145   90.4497   11.2145 C.3     1  UNL1        0.1572
     27 C          61.5184   89.2293   10.3424 C.ar    1  UNL1        0.0213
     28 C          62.4537   88.0958   10.6428 C.ar    1  UNL1        0.0007
     29 C          62.4575   86.8754    9.7707 C.ar    1  UNL1        0.0228
     30 C          61.5261   86.7885    8.5982 C.ar    1  UNL1        0.1526
     31 N          60.5907   87.9220    8.2978 N.ar    1  UNL1       -0.2401
     32 C          60.5869   89.1424    9.1698 C.ar    1  UNL1        0.0964
     33 C          61.5300   85.5680    7.7261 C.3     1  UNL1        0.4348
     34 F          61.5339   84.3476    6.8540 F       1  UNL1       -0.1644
     35 F          60.0458   85.6911    7.5472 F       1  UNL1       -0.1644
     36 F          63.0141   85.4449    7.9050 F       1  UNL1       -0.1644
@<TRIPOS>BOND
     1     1     2    1
     2     2     3   ar
     3     3     4   ar
     4     4     5   ar
     5     5    13    1
     6    13    14   ar
     7    14    15   ar
     8    15    16   ar
     9    16    17    1
    10    16    18   ar
    11    18    19   ar
    12     5     6   ar
    13     6    20    1
    14    20    21   ar
    15    21    22   ar
    16    22    23   ar
    17    23    24   ar
    18    24    25   ar
    19     6     7   ar
    20     7     8    2
    21     7     9   ar
    22     9    26    1
    23    26    27    1
    24    27    28   ar
    25    28    29   ar
    26    29    30   ar
    27    30    33    1
    28    33    34    1
    29    33    35    1
    30    33    36    1
    31    30    31   ar
    32    31    32   ar
    33     9    10   ar
    34    10    11   ar
    35    11    12    2
    36    11     2   ar
    37    10     4   ar
    38    19    13   ar
    39    25    20   ar
    40    32    27   ar
@<TRIPOS>MOLECULE
*****
 36 40 0 0 0
SMALL
GASTEIGER

@<TRIPOS>ATOM
      1 C          64.4503   86.0932   16.7858 C.3     1  UNL1        0.1588
      2 N          63.9612   86.3629   15.3936 N.ar    1  UNL1       -0.1973
      3 N          63.7444   85.3370   14.3210 N.ar    1  UNL1       -0.1459
      4 C          63.2523   86.0458   13.0941 C.ar    1  UNL1        0.1860
      5 C          62.8725   85.5473   11.7313 C.ar    1  UNL1        0.0422
      6 C          62.4053   86.5129   10.6828 C.ar    1  UNL1        0.0606
      7 C          62.3180   87.9770   10.9971 C.ar    1  UNL1        0.2756
      8 O          61.8508   88.9426    9.9486 O.2     1  UNL1       -0.2655
      9 N          62.6978   88.4755   12.3599 N.ar    1  UNL1       -0.2229
     10 N          63.1650   87.5099   13.4084 N.ar    1  UNL1       -0.1765
     11 C          63.6031   87.7059   14.8296 C.ar    1  UNL1        0.3670
     12 O          63.6711   89.0150   15.5586 O.2     1  UNL1       -0.2429
     13 C          62.9599   84.0832   11.4170 C.ar    1  UNL1        0.0032
     14 C          63.8819   83.6019   10.3362 C.ar    1  UNL1        0.0010
     15 C          63.9692   82.1378   10.0220 C.ar    1  UNL1        0.0114
     16 C          63.1346   81.1550   10.7885 C.ar    1  UNL1        0.0577
     17 CL         63.2219   79.6909   10.4742 Cl      1  UNL1       -0.0822
     18 C          62.2125   81.6364   11.8693 C.ar    1  UNL1        0.0114
     19 C          62.1252   83.1005   12.1836 C.ar    1  UNL1        0.0010
     20 C          62.0255   86.0144    9.3200 C.ar    1  UNL1        0.0078
     21 C          60.5947   86.0701    8.8729 C.ar    1  UNL1        0.0208
     22 C          60.2149   85.5715    7.5102 C.ar    1  UNL1        0.0989
     23 N          61.2658   85.0174    6.5944 N.ar    1  UNL1       -0.2423
     24 C          62.6966   84.9617    7.0415 C.ar    1  UNL1        0.0989
     25 C          63.0764   85.4603    8.4044 C.ar    1  UNL1        0.0208
     26 C          62.6105   89.9396   12.6742 C.3     1  UNL1        0.1572
     27 C          63.6611   90.8804   12.1632 C.ar    1  UNL1        0.0213
     28 C          63.6060   91.3678   10.7457 C.ar    1  UNL1        0.0007
     29 C          64.6567   92.3085   10.2347 C.ar    1  UNL1        0.0228
     30 C          65.7624   92.7619   11.1412 C.ar    1  UNL1        0.1526
     31 N          65.8175   92.2745   12.5587 N.ar    1  UNL1       -0.2401
     32 C          64.7669   91.3337   13.0697 C.ar    1  UNL1        0.0964
     33 C          66.8131   93.7026   10.6302 C.3     1  UNL1        0.4348
     34 F          67.8637   94.6433   10.1192 F       1  UNL1       -0.1644
     35 F          66.1344   94.8417   11.3315 F       1  UNL1       -0.1644
     36 F          67.4918   92.5636    9.9289 F       1  UNL1       -0.1644
@<TRIPOS>BOND
     1     1     2    1
     2     2     3   ar
     3     3     4   ar
     4     4     5   ar
     5     5    13    1
     6    13    14   ar
     7    14    15   ar
     8    15    16   ar
     9    16    17    1
    10    16    18   ar
    11    18    19   ar
    12     5     6   ar
    13     6    20    1
    14    20    21   ar
    15    21    22   ar
    16    22    23   ar
    17    23    24   ar
    18    24    25   ar
    19     6     7   ar
    20     7     8    2
    21     7     9   ar
    22     9    26    1
    23    26    27    1
    24    27    28   ar
    25    28    29   ar
    26    29    30   ar
    27    30    33    1
    28    33    34    1
    29    33    35    1
    30    33    36    1
    31    30    31   ar
    32    31    32   ar
    33     9    10   ar
    34    10    11   ar
    35    11    12    2
    36    11     2   ar
    37    10     4   ar
    38    19    13   ar
    39    25    20   ar
    40    32    27   ar
@<TRIPOS>MOLECULE
*****
 36 40 0 0 0
SMALL
GASTEIGER

@<TRIPOS>ATOM
      1 C          62.8020   89.1324   17.0813 C.3     1  UNL1        0.1588
      2 N          63.1687   89.7790   15.7784 N.ar    1  UNL1       -0.1973
      3 N          64.4121   90.5728   15.5072 N.ar    1  UNL1       -0.1459
      4 C          64.3682   91.0296   14.0791 C.ar    1  UNL1        0.1860
      5 C          65.3211   91.8453   13.2565 C.ar    1  UNL1        0.0422
      6 C          65.0033   92.1494   11.8224 C.ar    1  UNL1        0.0606
      7 C          63.7327   91.6379   11.2110 C.ar    1  UNL1        0.2756
      8 O          63.4149   91.9420    9.7769 O.2     1  UNL1       -0.2655
      9 N          62.7798   90.8222   12.0337 N.ar    1  UNL1       -0.2229
     10 N          63.0976   90.5181   13.4677 N.ar    1  UNL1       -0.1765
     11 C          62.3563   89.7451   14.5179 C.ar    1  UNL1        0.3670
     12 O          61.0345   89.0588   14.3390 O.2     1  UNL1       -0.2429
     13 C          66.5917   92.3568   13.8679 C.ar    1  UNL1        0.0032
     14 C          67.8658   91.5815   13.7088 C.ar    1  UNL1        0.0010
     15 C          69.1365   92.0931   14.3202 C.ar    1  UNL1        0.0114
     16 C          69.1329   93.3800   15.0908 C.ar    1  UNL1        0.0577
     17 CL         70.4036   93.8915   15.7022 Cl      1  UNL1       -0.0822
     18 C          67.8588   94.1554   15.2499 C.ar    1  UNL1        0.0114
     19 C          66.5881   93.6438   14.6385 C.ar    1  UNL1        0.0010
     20 C          65.9562   92.9651   10.9998 C.ar    1  UNL1        0.0078
     21 C          67.0946   92.2964   10.2878 C.ar    1  UNL1        0.0208
     22 C          68.0474   93.1121    9.4651 C.ar    1  UNL1        0.0989
     23 N          67.8619   94.5965    9.3545 N.ar    1  UNL1       -0.2423
     24 C          66.7235   95.2652   10.0665 C.ar    1  UNL1        0.0989
     25 C          65.7707   94.4494   10.8892 C.ar    1  UNL1        0.0208
     26 C          61.5092   90.3106   11.4223 C.3     1  UNL1        0.1572
     27 C          61.5433   89.1261   10.5025 C.ar    1  UNL1        0.0213
     28 C          60.5620   89.0254    9.3726 C.ar    1  UNL1        0.0007
     29 C          60.5961   87.8409    8.4530 C.ar    1  UNL1        0.0228
     30 C          61.6115   86.7571    8.6633 C.ar    1  UNL1        0.1526
     31 N          62.5928   86.8578    9.7932 N.ar    1  UNL1       -0.2401
     32 C          62.5587   88.0423   10.7128 C.ar    1  UNL1        0.0964
     33 C          61.6456   85.5726    7.7435 C.3     1  UNL1        0.4348
     34 F          61.6797   84.3881    6.8239 F       1  UNL1       -0.1644
     35 F          60.7765   86.3066    6.7659 F       1  UNL1       -0.1644
     36 F          62.5147   84.8386    8.7212 F       1  UNL1       -0.1644
@<TRIPOS>BOND
     1     1     2    1
     2     2     3   ar
     3     3     4   ar
     4     4     5   ar
     5     5    13    1
     6    13    14   ar
     7    14    15   ar
     8    15    16   ar
     9    16    17    1
    10    16    18   ar
    11    18    19   ar
    12     5     6   ar
    13     6    20    1
    14    20    21   ar
    15    21    22   ar
    16    22    23   ar
    17    23    24   ar
    18    24    25   ar
    19     6     7   ar
    20     7     8    2
    21     7     9   ar
    22     9    26    1
    23    26    27    1
    24    27    28   ar
    25    28    29   ar
    26    29    30   ar
    27    30    33    1
    28    33    34    1
    29    33    35    1
    30    33    36    1
    31    30    31   ar
    32    31    32   ar
    33     9    10   ar
    34    10    11   ar
    35    11    12    2
    36    11     2   ar
    37    10     4   ar
    38    19    13   ar
    39    25    20   ar
    40    32    27   ar
@<TRIPOS>MOLECULE
*****
 36 40 0 0 0
SMALL
GASTEIGER

@<TRIPOS>ATOM
      1 C          59.7529   87.3789    7.4054 C.3     1  UNL1        0.1588
      2 N          60.5241   87.2725    8.6876 N.ar    1  UNL1       -0.1973
      3 N          61.1131   86.0176    9.2606 N.ar    1  UNL1       -0.1459
      4 C          61.7947   86.3718   10.5490 C.ar    1  UNL1        0.1860
      5 C          62.5464   85.5427   11.5478 C.ar    1  UNL1        0.0422
      6 C          63.1305   86.1875   12.7698 C.ar    1  UNL1        0.0606
      7 C          62.9627   87.6612   12.9930 C.ar    1  UNL1        0.2756
      8 O          63.5467   88.3060   14.2150 O.2     1  UNL1       -0.2655
      9 N          62.2110   88.4903   11.9942 N.ar    1  UNL1       -0.2229
     10 N          61.6270   87.8456   10.7722 N.ar    1  UNL1       -0.1765
     11 C          60.8417   88.4022    9.6218 C.ar    1  UNL1        0.3670
     12 O          60.4438   89.8367    9.4379 O.2     1  UNL1       -0.2429
     13 C          62.7142   84.0690   11.3245 C.ar    1  UNL1        0.0032
     14 C          62.0025   83.0904   12.2110 C.ar    1  UNL1        0.0010
     15 C          62.1703   81.6166   11.9877 C.ar    1  UNL1        0.0114
     16 C          63.0497   81.1214   10.8781 C.ar    1  UNL1        0.0577
     17 CL         63.2174   79.6476   10.6549 Cl      1  UNL1       -0.0822
     18 C          63.7614   82.1000    9.9916 C.ar    1  UNL1        0.0114
     19 C          63.5937   83.5738   10.2148 C.ar    1  UNL1        0.0010
     20 C          63.8822   85.3584   13.7685 C.ar    1  UNL1        0.0078
     21 C          63.1344   84.5561   14.7918 C.ar    1  UNL1        0.0208
     22 C          63.8861   83.7271   15.7906 C.ar    1  UNL1        0.0989
     23 N          65.3857   83.7003   15.7661 N.ar    1  UNL1       -0.2423
     24 C          66.1335   84.5026   14.7428 C.ar    1  UNL1        0.0989
     25 C          65.3817   85.3317   13.7440 C.ar    1  UNL1        0.0208
     26 C          62.0432   89.9641   12.2174 C.3     1  UNL1        0.1572
     27 C          63.1602   90.9060   11.8780 C.ar    1  UNL1        0.0213
     28 C          63.4021   91.2992   10.4508 C.ar    1  UNL1        0.0007
     29 C          64.5191   92.2410   10.1114 C.ar    1  UNL1        0.0228
     30 C          65.3942   92.7897   11.1992 C.ar    1  UNL1        0.1526
     31 N          65.1523   92.3965   12.6263 N.ar    1  UNL1       -0.2401
     32 C          64.0353   91.4547   12.9657 C.ar    1  UNL1        0.0964
     33 C          66.5112   93.7316   10.8597 C.3     1  UNL1        0.4348
     34 F          67.6282   94.6734   10.5202 F       1  UNL1       -0.1644
     35 F          65.7634   94.8547   11.5149 F       1  UNL1       -0.1644
     36 F          67.2590   92.6085   10.2045 F       1  UNL1       -0.1644
@<TRIPOS>BOND
     1     1     2    1
     2     2     3   ar
     3     3     4   ar
     4     4     5   ar
     5     5    13    1
     6    13    14   ar
     7    14    15   ar
     8    15    16   ar
     9    16    17    1
    10    16    18   ar
    11    18    19   ar
    12     5     6   ar
    13     6    20    1
    14    20    21   ar
    15    21    22   ar
    16    22    23   ar
    17    23    24   ar
    18    24    25   ar
    19     6     7   ar
    20     7     8    2
    21     7     9   ar
    22     9    26    1
    23    26    27    1
    24    27    28   ar
    25    28    29   ar
    26    29    30   ar
    27    30    33    1
    28    33    34    1
    29    33    35    1
    30    33    36    1
    31    30    31   ar
    32    31    32   ar
    33     9    10   ar
    34    10    11   ar
    35    11    12    2
    36    11     2   ar
    37    10     4   ar
    38    19    13   ar
    39    25    20   ar
    40    32    27   ar
@<TRIPOS>MOLECULE
*****
 36 40 0 0 0
SMALL
GASTEIGER

@<TRIPOS>ATOM
      1 C          64.3282   85.9836   16.9643 C.3     1  UNL1        0.1588
      2 N          63.8651   86.2905   15.5710 N.ar    1  UNL1       -0.1973
      3 N          63.6817   85.2956   14.4636 N.ar    1  UNL1       -0.1459
      4 C          63.2074   86.0365   13.2486 C.ar    1  UNL1        0.1860
      5 C          62.8613   85.5759   11.8637 C.ar    1  UNL1        0.0422
      6 C          62.4053   86.5681   10.8353 C.ar    1  UNL1        0.0606
      7 C          62.2956   88.0210   11.1918 C.ar    1  UNL1        0.2756
      8 O          61.8396   89.0133   10.1635 O.2     1  UNL1       -0.2655
      9 N          62.6417   88.4816   12.5768 N.ar    1  UNL1       -0.2229
     10 N          63.0976   87.4893   13.6051 N.ar    1  UNL1       -0.1765
     11 C          63.5041   87.6463   15.0405 C.ar    1  UNL1        0.3670
     12 O          63.5428   88.9333   15.8101 O.2     1  UNL1       -0.2429
     13 C          62.9710   84.1230   11.5071 C.ar    1  UNL1        0.0032
     14 C          63.9218   83.6841   10.4333 C.ar    1  UNL1        0.0010
     15 C          64.0316   82.2312   10.0767 C.ar    1  UNL1        0.0114
     16 C          63.1906   81.2173   10.7940 C.ar    1  UNL1        0.0577
     17 CL         63.3004   79.7644   10.4375 Cl      1  UNL1       -0.0822
     18 C          62.2397   81.6562   11.8680 C.ar    1  UNL1        0.0114
     19 C          62.1299   83.1091   12.2245 C.ar    1  UNL1        0.0010
     20 C          62.0592   86.1075    9.4504 C.ar    1  UNL1        0.0078
     21 C          63.1297   85.5638    8.5513 C.ar    1  UNL1        0.0208
     22 C          62.7836   85.1032    7.1664 C.ar    1  UNL1        0.0989
     23 N          61.3669   85.1863    6.6805 N.ar    1  UNL1       -0.2423
     24 C          60.2963   85.7300    7.5796 C.ar    1  UNL1        0.0989
     25 C          60.6425   86.1906    8.9645 C.ar    1  UNL1        0.0208
     26 C          62.5319   89.9345   12.9334 C.3     1  UNL1        0.1572
     27 C          63.7519   90.6965   13.3588 C.ar    1  UNL1        0.0213
     28 C          64.7940   91.0698   12.3466 C.ar    1  UNL1        0.0007
     29 C          66.0139   91.8318   12.7721 C.ar    1  UNL1        0.0228
     30 C          66.1917   92.2206   14.2099 C.ar    1  UNL1        0.1526
     31 N          65.1496   91.8474   15.2221 N.ar    1  UNL1       -0.2401
     32 C          63.9297   91.0853   14.7966 C.ar    1  UNL1        0.0964
     33 C          67.4117   92.9827   14.6353 C.3     1  UNL1        0.4348
     34 F          68.6316   93.7448   15.0608 F       1  UNL1       -0.1644
     35 F          68.1002   91.6931   14.9712 F       1  UNL1       -0.1644
     36 F          66.7232   94.2723   14.2995 F       1  UNL1       -0.1644
@<TRIPOS>BOND
     1     1     2    1
     2     2     3   ar
     3     3     4   ar
     4     4     5   ar
     5     5    13    1
     6    13    14   ar
     7    14    15   ar
     8    15    16   ar
     9    16    17    1
    10    16    18   ar
    11    18    19   ar
    12     5     6   ar
    13     6    20    1
    14    20    21   ar
    15    21    22   ar
    16    22    23   ar
    17    23    24   ar
    18    24    25   ar
    19     6     7   ar
    20     7     8    2
    21     7     9   ar
    22     9    26    1
    23    26    27    1
    24    27    28   ar
    25    28    29   ar
    26    29    30   ar
    27    30    33    1
    28    33    34    1
    29    33    35    1
    30    33    36    1
    31    30    31   ar
    32    31    32   ar
    33     9    10   ar
    34    10    11   ar
    35    11    12    2
    36    11     2   ar
    37    10     4   ar
    38    19    13   ar
    39    25    20   ar
    40    32    27   ar
