@<TRIPOS>MOLECULE
*****
 35 39 0 0 0
SMALL
GASTEIGER

@<TRIPOS>ATOM
      1 C          63.6300   82.7892   12.5141 C.2     1  UNL1        0.4048
      2 O          64.6735   81.8889   11.9222 O.2     1  UNL1       -0.2262
      3 N          63.0601   83.9131   11.7004 N.am    1  UNL1       -0.2443
      4 C          63.4336   84.2575   10.2891 C.3     1  UNL1        0.0985
      5 C          62.6209   85.4472    9.8716 C.3     1  UNL1        0.0429
      6 C          61.7450   85.8380   11.0249 C.3     1  UNL1        0.0920
      7 C          62.0164   84.8899   12.1551 C.3     1  UNL1        0.1162
      8 N          60.7691   86.9769   11.0445 N.pl3   1  UNL1       -0.3180
      9 H          60.4581   87.3439   11.9035 H       1  UNL1        0.1482
     10 C          60.2669   87.5566    9.7554 C.ar    1  UNL1        0.1324
     11 N          59.5005   86.6967    8.7946 N.ar    1  UNL1       -0.2294
     12 C          58.9984   87.2764    7.5056 C.ar    1  UNL1        0.1003
     13 C          59.2626   88.7160    7.1773 C.ar    1  UNL1        0.0207
     14 C          60.0290   89.5758    8.1381 C.ar    1  UNL1        0.0083
     15 C          60.5312   88.9961    9.4272 C.ar    1  UNL1        0.1027
     16 C          61.2976   89.8560   10.3880 C.3     1  UNL1        0.4212
     17 F          62.0641   90.7159   11.3489 F       1  UNL1       -0.1658
     18 F          62.5814   89.2422    9.9132 F       1  UNL1       -0.1658
     19 F          60.0139   90.4697   10.8628 F       1  UNL1       -0.1658
     20 O          63.1564   82.5657   13.9197 O.3     1  UNL1       -0.4383
     21 C          63.9384   83.6107   14.2443 C.3     1  UNL1        0.0688
     22 C          63.1624   84.3695   15.2796 C.3     1  UNL1        0.0086
     23 C          63.7365   85.6177   15.8816 C.3     1  UNL1        0.0007
     24 C          65.0865   86.1071   15.4482 C.3     1  UNL1        0.0036
     25 C          65.8625   85.3483   14.4129 C.3     1  UNL1        0.0407
     26 C          65.2885   84.1001   13.8109 C.3     1  UNL1        0.0122
     27 C          63.0398   83.7245   14.8651 C.3     1  UNL1        0.1702
     28 C          61.8124   83.8801   15.7130 C.3     1  UNL1        0.0407
     29 C          62.3864   85.1283   16.3150 C.3     1  UNL1        0.0036
     30 C          62.5884   83.1213   14.6777 C.3     1  UNL1        0.0122
     31 N          63.9492   81.0252   13.9885 N.am    1  UNL1       -0.3288
     32 C          63.3644   82.3624   13.6423 C.2     1  UNL1        0.2184
     33 O          62.2415   82.0876   12.6865 O.2     1  UNL1       -0.2754
     34 H          63.5725   80.2060   13.5933 H       1  UNL1        0.1449
     35 H          64.7098   80.9668   14.6108 H       1  UNL1        0.1449
@<TRIPOS>BOND
     1    31    32   am
     2    32    33    2
     3    21    32    1
     4    21    22    1
     5    22    23    1
     6    23    24    1
     7    24    25    1
     8    25    26    1
     9    25    27    1
    10    27    20    1
    11    20     1    1
    12     1     2    2
    13     1     3   am
    14     3     4    1
    15     4     5    1
    16     5     6    1
    17     6     8    1
    18     8    10    1
    19    10    11   ar
    20    11    12   ar
    21    12    13   ar
    22    13    14   ar
    23    14    15   ar
    24    15    16    1
    25    16    17    1
    26    16    18    1
    27    16    19    1
    28     6     7    1
    29    27    28    1
    30    28    29    1
    31    28    30    1
    32    26    21    1
    33     7     3    1
    34    30    21    1
    35    29    23    1
    36    15    10   ar
    37    31    34    1
    38    31    35    1
    39     8     9    1
@<TRIPOS>MOLECULE
*****
 35 39 0 0 0
SMALL
GASTEIGER

@<TRIPOS>ATOM
      1 C          63.6345   90.1527   15.4959 C.2     1  UNL1        0.4048
      2 O          63.1602   90.7491   16.7879 O.2     1  UNL1       -0.2262
      3 N          63.7939   88.6665   15.3697 N.am    1  UNL1       -0.2443
      4 C          63.5191   87.6559   16.4436 C.3     1  UNL1        0.0985
      5 C          63.8115   86.2949   15.8850 C.3     1  UNL1        0.0429
      6 C          64.2671   86.4643   14.4660 C.3     1  UNL1        0.0920
      7 C          64.2562   87.9300   14.1475 C.3     1  UNL1        0.1162
      8 N          64.6639   85.3615   13.5297 N.pl3   1  UNL1       -0.3180
      9 H          65.4435   85.4739   12.9392 H       1  UNL1        0.1482
     10 C          63.8728   84.0876   13.4933 C.ar    1  UNL1        0.1324
     11 N          63.9766   83.1077   14.6242 N.ar    1  UNL1       -0.2294
     12 C          63.1856   81.8338   14.5878 C.ar    1  UNL1        0.1003
     13 C          62.2907   81.5398   13.4204 C.ar    1  UNL1        0.0207
     14 C          62.1869   82.5197   12.2895 C.ar    1  UNL1        0.0083
     15 C          62.9780   83.7936   12.3260 C.ar    1  UNL1        0.1027
     16 C          62.8742   84.7736   11.1951 C.3     1  UNL1        0.4212
     17 F          62.7704   85.7535   10.0641 F       1  UNL1       -0.1658
     18 F          63.8945   83.9905   10.4230 F       1  UNL1       -0.1658
     19 F          61.8540   85.5565   11.9671 F       1  UNL1       -0.1658
     20 O          63.9493   91.0425   14.3301 O.3     1  UNL1       -0.4383
     21 C          64.6071   91.4694   13.2375 C.3     1  UNL1        0.0688
     22 C          66.0337   91.6176   13.6764 C.3     1  UNL1        0.0086
     23 C          67.0737   92.0842   12.7015 C.3     1  UNL1        0.0007
     24 C          66.6871   92.4026   11.2876 C.3     1  UNL1        0.0036
     25 C          65.2605   92.2544   10.8486 C.3     1  UNL1        0.0407
     26 C          64.2205   91.7878   11.8236 C.3     1  UNL1        0.0122
     27 C          65.3734   91.3974   14.0206 C.3     1  UNL1        0.1702
     28 C          66.4203   91.2992   15.0904 C.3     1  UNL1        0.0407
     29 C          67.4603   91.7658   14.1154 C.3     1  UNL1        0.0036
     30 C          64.9937   91.1510   14.6514 C.3     1  UNL1        0.0122
     31 N          62.4743   90.0805   13.7593 N.am    1  UNL1       -0.3288
     32 C          63.5670   91.0028   14.2125 C.2     1  UNL1        0.2184
     33 O          63.3202   91.2509   15.6710 O.2     1  UNL1       -0.2754
     34 H          61.7917   89.7742   14.3992 H       1  UNL1        0.1449
     35 H          62.4398   89.7814   12.8220 H       1  UNL1        0.1449
@<TRIPOS>BOND
     1    31    32   am
     2    32    33    2
     3    21    32    1
     4    21    22    1
     5    22    23    1
     6    23    24    1
     7    24    25    1
     8    25    26    1
     9    25    27    1
    10    27    20    1
    11    20     1    1
    12     1     2    2
    13     1     3   am
    14     3     4    1
    15     4     5    1
    16     5     6    1
    17     6     8    1
    18     8    10    1
    19    10    11   ar
    20    11    12   ar
    21    12    13   ar
    22    13    14   ar
    23    14    15   ar
    24    15    16    1
    25    16    17    1
    26    16    18    1
    27    16    19    1
    28     6     7    1
    29    27    28    1
    30    28    29    1
    31    28    30    1
    32    26    21    1
    33     7     3    1
    34    30    21    1
    35    29    23    1
    36    15    10   ar
    37    31    34    1
    38    31    35    1
    39     8     9    1
@<TRIPOS>MOLECULE
*****
 35 39 0 0 0
SMALL
GASTEIGER

@<TRIPOS>ATOM
      1 C          61.1842   88.3597   10.1032 C.2     1  UNL1        0.4048
      2 O          60.5560   89.3782    9.1989 O.2     1  UNL1       -0.2262
      3 N          62.1399   88.7954   11.1740 N.am    1  UNL1       -0.2443
      4 C          62.5612   90.2066   11.4589 C.3     1  UNL1        0.0985
      5 C          63.5238   90.1798   12.6090 C.3     1  UNL1        0.0429
      6 C          63.6975   88.7521   13.0349 C.3     1  UNL1        0.0920
      7 C          62.8422   87.8965   12.1481 C.3     1  UNL1        0.1162
      8 N          64.5727   88.2654   14.1516 N.pl3   1  UNL1       -0.3180
      9 H          65.5523   88.3153   14.0668 H       1  UNL1        0.1482
     10 C          63.9555   87.7026   15.3976 C.ar    1  UNL1        0.1324
     11 N          63.2714   88.6137   16.3732 N.ar    1  UNL1       -0.2294
     12 C          62.6543   88.0510   17.6190 C.ar    1  UNL1        0.1003
     13 C          62.7212   86.5771   17.8894 C.ar    1  UNL1        0.0207
     14 C          63.4053   85.6659   16.9138 C.ar    1  UNL1        0.0083
     15 C          64.0225   86.2287   15.6678 C.ar    1  UNL1        0.1027
     16 C          64.7066   85.3176   14.6922 C.3     1  UNL1        0.4212
     17 F          65.3908   84.4065   13.7166 F       1  UNL1       -0.1658
     18 F          66.0093   86.0129   14.9564 F       1  UNL1       -0.1658
     19 F          63.4040   84.6224   14.4281 F       1  UNL1       -0.1658
     20 O          60.8568   86.9054    9.9366 O.3     1  UNL1       -0.4383
     21 C          61.6448   85.8847   10.3187 C.3     1  UNL1        0.0688
     22 C          62.3442   85.4445    9.0669 C.3     1  UNL1        0.0086
     23 C          63.3195   84.3058    9.1136 C.3     1  UNL1        0.0007
     24 C          63.5954   83.6074   10.4121 C.3     1  UNL1        0.0036
     25 C          62.8960   84.0476   11.6639 C.3     1  UNL1        0.0407
     26 C          61.9207   85.1862   11.6172 C.3     1  UNL1        0.0122
     27 C          61.8237   85.9938    9.2408 C.3     1  UNL1        0.1702
     28 C          62.0682   86.1429    7.7684 C.3     1  UNL1        0.0407
     29 C          63.0435   85.0043    7.8151 C.3     1  UNL1        0.0036
     30 C          61.3688   86.5831    9.0202 C.3     1  UNL1        0.0122
     31 N          60.1290   87.6007   11.5466 N.am    1  UNL1       -0.3288
     32 C          60.6694   87.0234   10.2721 C.2     1  UNL1        0.2184
     33 O          60.0357   87.8077    9.1616 O.2     1  UNL1       -0.2754
     34 H          59.4888   88.3480   11.5160 H       1  UNL1        0.1449
     35 H          60.4144   87.2322   12.4138 H       1  UNL1        0.1449
@<TRIPOS>BOND
     1    31    32   am
     2    32    33    2
     3    21    32    1
     4    21    22    1
     5    22    23    1
     6    23    24    1
     7    24    25    1
     8    25    26    1
     9    25    27    1
    10    27    20    1
    11    20     1    1
    12     1     2    2
    13     1     3   am
    14     3     4    1
    15     4     5    1
    16     5     6    1
    17     6     8    1
    18     8    10    1
    19    10    11   ar
    20    11    12   ar
    21    12    13   ar
    22    13    14   ar
    23    14    15   ar
    24    15    16    1
    25    16    17    1
    26    16    18    1
    27    16    19    1
    28     6     7    1
    29    27    28    1
    30    28    29    1
    31    28    30    1
    32    26    21    1
    33     7     3    1
    34    30    21    1
    35    29    23    1
    36    15    10   ar
    37    31    34    1
    38    31    35    1
    39     8     9    1
@<TRIPOS>MOLECULE
*****
 35 39 0 0 0
SMALL
GASTEIGER

@<TRIPOS>ATOM
      1 C          60.8011   89.2478   10.6684 C.2     1  UNL1        0.4048
      2 O          60.0879   90.1036    9.6641 O.2     1  UNL1       -0.2262
      3 N          61.3284   87.9020   10.2673 N.am    1  UNL1       -0.2443
      4 C          61.2182   87.2818    8.9060 C.3     1  UNL1        0.0985
      5 C          61.8801   85.9366    8.9545 C.3     1  UNL1        0.0429
      6 C          62.3993   85.7253   10.3458 C.3     1  UNL1        0.0920
      7 C          62.0583   86.9400   11.1572 C.3     1  UNL1        0.1162
      8 N          63.1311   84.5124   10.8392 N.pl3   1  UNL1       -0.3180
      9 H          63.4884   83.8578   10.1965 H       1  UNL1        0.1482
     10 C          63.3184   84.2969   12.3118 C.ar    1  UNL1        0.1324
     11 N          63.5136   85.4723   13.2230 N.ar    1  UNL1       -0.2294
     12 C          63.7009   85.2568   14.6954 C.ar    1  UNL1        0.1003
     13 C          63.6931   83.8658   15.2568 C.ar    1  UNL1        0.0207
     14 C          63.4979   82.6904   14.3456 C.ar    1  UNL1        0.0083
     15 C          63.3106   82.9060   12.8731 C.ar    1  UNL1        0.1027
     16 C          63.1154   81.7306   11.9619 C.3     1  UNL1        0.4212
     17 F          62.9203   80.5551   11.0506 F       1  UNL1       -0.1658
     18 F          64.4864   81.9448   11.3919 F       1  UNL1       -0.1658
     19 F          61.7446   81.5163   12.5318 F       1  UNL1       -0.1658
     20 O          60.9872   89.7377   12.0738 O.3     1  UNL1       -0.4383
     21 C          62.0253   90.4009   11.5340 C.3     1  UNL1        0.0688
     22 C          63.0671   90.4353   12.6126 C.3     1  UNL1        0.0086
     23 C          64.3843   91.1076   12.3618 C.3     1  UNL1        0.0007
     24 C          64.6597   91.7455   11.0324 C.3     1  UNL1        0.0036
     25 C          63.6179   91.7110    9.9538 C.3     1  UNL1        0.0407
     26 C          62.3007   91.0387   10.2046 C.3     1  UNL1        0.0122
     27 C          62.3492   90.1458   12.5518 C.3     1  UNL1        0.1702
     28 C          62.7917   89.7974   13.9420 C.3     1  UNL1        0.0407
     29 C          64.1089   90.4697   13.6912 C.3     1  UNL1        0.0036
     30 C          61.7499   89.7630   12.8634 C.3     1  UNL1        0.0122
     31 N          59.4511   90.5441   11.8555 N.am    1  UNL1       -0.3288
     32 C          60.7080   89.7285   11.7848 C.2     1  UNL1        0.2184
     33 O          60.2899   88.3048   12.0044 O.2     1  UNL1       -0.2754
     34 H          58.5866   90.1029   12.0201 H       1  UNL1        0.1449
     35 H          59.4907   91.5207   11.7373 H       1  UNL1        0.1449
@<TRIPOS>BOND
     1    31    32   am
     2    32    33    2
     3    21    32    1
     4    21    22    1
     5    22    23    1
     6    23    24    1
     7    24    25    1
     8    25    26    1
     9    25    27    1
    10    27    20    1
    11    20     1    1
    12     1     2    2
    13     1     3   am
    14     3     4    1
    15     4     5    1
    16     5     6    1
    17     6     8    1
    18     8    10    1
    19    10    11   ar
    20    11    12   ar
    21    12    13   ar
    22    13    14   ar
    23    14    15   ar
    24    15    16    1
    25    16    17    1
    26    16    18    1
    27    16    19    1
    28     6     7    1
    29    27    28    1
    30    28    29    1
    31    28    30    1
    32    26    21    1
    33     7     3    1
    34    30    21    1
    35    29    23    1
    36    15    10   ar
    37    31    34    1
    38    31    35    1
    39     8     9    1
@<TRIPOS>MOLECULE
*****
 35 39 0 0 0
SMALL
GASTEIGER

@<TRIPOS>ATOM
      1 C          66.6668   91.9441   14.4474 C.2     1  UNL1        0.4048
      2 O          67.8359   91.4519   15.2479 O.2     1  UNL1       -0.2262
      3 N          65.4818   91.0520   14.2241 N.am    1  UNL1       -0.2443
      4 C          65.3238   89.6511   14.7364 C.3     1  UNL1        0.0985
      5 C          63.9911   89.1374   14.2783 C.3     1  UNL1        0.0429
      6 C          63.3253   90.2209   13.4828 C.3     1  UNL1        0.0920
      7 C          64.2466   91.4042   13.4493 C.3     1  UNL1        0.1162
      8 N          61.9752   90.1361   12.8346 N.pl3   1  UNL1       -0.3180
      9 H          61.3038   90.8364   13.0021 H       1  UNL1        0.1482
     10 C          61.6480   88.9842   11.9312 C.ar    1  UNL1        0.1324
     11 N          62.6254   87.8582   11.7676 N.ar    1  UNL1       -0.2294
     12 C          62.2983   86.7064   10.8642 C.ar    1  UNL1        0.1003
     13 C          60.9937   86.6805   10.1244 C.ar    1  UNL1        0.0207
     14 C          60.0163   87.8065   10.2879 C.ar    1  UNL1        0.0083
     15 C          60.3435   88.9584   11.1914 C.ar    1  UNL1        0.1027
     16 C          59.3661   90.0844   11.3550 C.3     1  UNL1        0.4212
     17 F          58.3886   91.2105   11.5186 F       1  UNL1       -0.1658
     18 F          58.7564   89.3840   12.5331 F       1  UNL1       -0.1658
     19 F          59.9757   90.7847   10.1769 F       1  UNL1       -0.1658
     20 O          66.6827   93.3285   13.8701 O.3     1  UNL1       -0.4383
     21 C          67.2670   92.7557   12.8027 C.3     1  UNL1        0.0688
     22 C          66.6953   93.4729   11.6158 C.3     1  UNL1        0.0086
     23 C          67.1263   93.0922   10.2305 C.3     1  UNL1        0.0007
     24 C          68.1291   91.9945   10.0320 C.3     1  UNL1        0.0036
     25 C          68.7008   91.2773   11.2189 C.3     1  UNL1        0.0407
     26 C          68.2697   91.6579   12.6043 C.3     1  UNL1        0.0122
     27 C          66.6015   93.5228   12.3850 C.3     1  UNL1        0.1702
     28 C          65.6925   94.5706   11.8143 C.3     1  UNL1        0.0407
     29 C          66.1236   94.1900   10.4289 C.3     1  UNL1        0.0036
     30 C          66.2642   93.8535   13.0012 C.3     1  UNL1        0.0122
     31 N          67.8325   93.7057   15.1539 N.am    1  UNL1       -0.3288
     32 C          66.8359   93.1363   14.1882 C.2     1  UNL1        0.2184
     33 O          65.5297   93.0858   14.9238 O.2     1  UNL1       -0.2754
     34 H          67.5496   93.9554   16.0631 H       1  UNL1        0.1449
     35 H          68.7695   93.8296   14.8784 H       1  UNL1        0.1449
@<TRIPOS>BOND
     1    31    32   am
     2    32    33    2
     3    21    32    1
     4    21    22    1
     5    22    23    1
     6    23    24    1
     7    24    25    1
     8    25    26    1
     9    25    27    1
    10    27    20    1
    11    20     1    1
    12     1     2    2
    13     1     3   am
    14     3     4    1
    15     4     5    1
    16     5     6    1
    17     6     8    1
    18     8    10    1
    19    10    11   ar
    20    11    12   ar
    21    12    13   ar
    22    13    14   ar
    23    14    15   ar
    24    15    16    1
    25    16    17    1
    26    16    18    1
    27    16    19    1
    28     6     7    1
    29    27    28    1
    30    28    29    1
    31    28    30    1
    32    26    21    1
    33     7     3    1
    34    30    21    1
    35    29    23    1
    36    15    10   ar
    37    31    34    1
    38    31    35    1
    39     8     9    1
@<TRIPOS>MOLECULE
*****
 35 39 0 0 0
SMALL
GASTEIGER

@<TRIPOS>ATOM
      1 C          60.9770   89.0629   10.3876 C.2     1  UNL1        0.4048
      2 O          60.0941   89.3657    9.2134 O.2     1  UNL1       -0.2262
      3 N          61.5147   87.6764   10.5839 N.am    1  UNL1       -0.2443
      4 C          61.2571   86.4967    9.6941 C.3     1  UNL1        0.0985
      5 C          61.9875   85.3173   10.2648 C.3     1  UNL1        0.0429
      6 C          62.6966   85.7683   11.5073 C.3     1  UNL1        0.0920
      7 C          62.4043   87.2262   11.7046 C.3     1  UNL1        0.1162
      8 N          63.5484   84.9116   12.3965 N.pl3   1  UNL1       -0.3180
      9 H          64.3696   85.2802   12.7953 H       1  UNL1        0.1482
     10 C          63.1489   83.4935   12.6783 C.ar    1  UNL1        0.1324
     11 N          63.1015   82.4919   11.5627 N.ar    1  UNL1       -0.2294
     12 C          62.7020   81.0739   11.8444 C.ar    1  UNL1        0.1003
     13 C          62.3499   80.6573   13.2417 C.ar    1  UNL1        0.0207
     14 C          62.3973   81.6589   14.3573 C.ar    1  UNL1        0.0083
     15 C          62.7968   83.0770   14.0755 C.ar    1  UNL1        0.1027
     16 C          62.8441   84.0786   15.1911 C.3     1  UNL1        0.4212
     17 F          62.8915   85.0803   16.3068 F       1  UNL1       -0.1658
     18 F          61.3981   84.4040   14.9603 F       1  UNL1       -0.1658
     19 F          64.2901   83.7533   15.4219 F       1  UNL1       -0.1658
     20 O          61.3222   90.1467   11.3655 O.3     1  UNL1       -0.4383
     21 C          62.3134   90.3137   12.2590 C.3     1  UNL1        0.0688
     22 C          63.3894   91.0455   11.5130 C.3     1  UNL1        0.0086
     23 C          64.6688   91.4086   12.2066 C.3     1  UNL1        0.0007
     24 C          64.8723   91.0399   13.6463 C.3     1  UNL1        0.0036
     25 C          63.7962   90.3081   14.3924 C.3     1  UNL1        0.0407
     26 C          62.5168   89.9450   13.6987 C.3     1  UNL1        0.0122
     27 C          62.6822   90.7788   11.3352 C.3     1  UNL1        0.1702
     28 C          63.1860   91.4142   10.0733 C.3     1  UNL1        0.0407
     29 C          64.4654   91.7773   10.7669 C.3     1  UNL1        0.0036
     30 C          62.1100   90.6824   10.8193 C.3     1  UNL1        0.0122
     31 N          60.1254   88.9161   12.1608 N.am    1  UNL1       -0.3288
     32 C          61.0339   89.9506   11.5654 C.2     1  UNL1        0.2184
     33 O          60.3683   90.4067   10.3009 O.2     1  UNL1       -0.2754
     34 H          59.2857   88.6778   11.7056 H       1  UNL1        0.1449
     35 H          60.3689   88.4755   13.0069 H       1  UNL1        0.1449
@<TRIPOS>BOND
     1    31    32   am
     2    32    33    2
     3    21    32    1
     4    21    22    1
     5    22    23    1
     6    23    24    1
     7    24    25    1
     8    25    26    1
     9    25    27    1
    10    27    20    1
    11    20     1    1
    12     1     2    2
    13     1     3   am
    14     3     4    1
    15     4     5    1
    16     5     6    1
    17     6     8    1
    18     8    10    1
    19    10    11   ar
    20    11    12   ar
    21    12    13   ar
    22    13    14   ar
    23    14    15   ar
    24    15    16    1
    25    16    17    1
    26    16    18    1
    27    16    19    1
    28     6     7    1
    29    27    28    1
    30    28    29    1
    31    28    30    1
    32    26    21    1
    33     7     3    1
    34    30    21    1
    35    29    23    1
    36    15    10   ar
    37    31    34    1
    38    31    35    1
    39     8     9    1
@<TRIPOS>MOLECULE
*****
 35 39 0 0 0
SMALL
GASTEIGER

@<TRIPOS>ATOM
      1 C          61.1693   87.7584    9.7178 C.2     1  UNL1        0.4048
      2 O          60.8794   87.6018    8.2544 O.2     1  UNL1       -0.2262
      3 N          61.7931   89.0236   10.2276 N.am    1  UNL1       -0.2443
      4 C          62.1804   90.2121    9.3984 C.3     1  UNL1        0.0985
      5 C          62.7659   91.2456   10.3144 C.3     1  UNL1        0.0429
      6 C          62.7404   90.6958   11.7098 C.3     1  UNL1        0.0920
      7 C          62.1392   89.3226   11.6561 C.3     1  UNL1        0.1162
      8 N          63.2301   91.3963   12.9425 N.pl3   1  UNL1       -0.3180
      9 H          62.5851   91.7480   13.5979 H       1  UNL1        0.1482
     10 C          64.7026   91.5611   13.1766 C.ar    1  UNL1        0.1324
     11 N          65.5380   92.3231   12.1911 N.ar    1  UNL1       -0.2294
     12 C          67.0104   92.4878   12.4252 C.ar    1  UNL1        0.1003
     13 C          67.6474   91.8905   13.6448 C.ar    1  UNL1        0.0207
     14 C          66.8119   91.1285   14.6303 C.ar    1  UNL1        0.0083
     15 C          65.3395   90.9638   14.3962 C.ar    1  UNL1        0.1027
     16 C          64.5040   90.2018   15.3818 C.3     1  UNL1        0.4212
     17 F          63.6684   89.4397   16.3674 F       1  UNL1       -0.1658
     18 F          64.3185   91.4514   16.1906 F       1  UNL1       -0.1658
     19 F          64.6895   88.9523   14.5729 F       1  UNL1       -0.1658
     20 O          60.8353   86.6497   10.6713 O.3     1  UNL1       -0.4383
     21 C          61.7206   85.9090    9.9809 C.3     1  UNL1        0.0688
     22 C          62.4443   85.1025   11.0181 C.3     1  UNL1        0.0086
     23 C          63.5234   84.1457   10.6057 C.3     1  UNL1        0.0007
     24 C          63.8788   83.9955    9.1561 C.3     1  UNL1        0.0036
     25 C          63.1550   84.8020    8.1190 C.3     1  UNL1        0.0407
     26 C          62.0759   85.7587    8.5314 C.3     1  UNL1        0.0122
     27 C          61.8762   85.6316   11.0320 C.3     1  UNL1        0.1702
     28 C          62.0890   85.2527   12.4676 C.3     1  UNL1        0.0407
     29 C          63.1681   84.2959   12.0552 C.3     1  UNL1        0.0036
     30 C          61.3652   86.0592   11.4305 C.3     1  UNL1        0.0122
     31 N          59.4414   87.0662    9.5160 N.am    1  UNL1       -0.3288
     32 C          60.6414   86.8658   10.3933 C.2     1  UNL1        0.2184
     33 O          60.4404   87.7613   11.5797 O.2     1  UNL1       -0.2754
     34 H          58.7331   87.6942    9.7867 H       1  UNL1        0.1449
     35 H          59.3620   86.5698    8.6696 H       1  UNL1        0.1449
@<TRIPOS>BOND
     1    31    32   am
     2    32    33    2
     3    21    32    1
     4    21    22    1
     5    22    23    1
     6    23    24    1
     7    24    25    1
     8    25    26    1
     9    25    27    1
    10    27    20    1
    11    20     1    1
    12     1     2    2
    13     1     3   am
    14     3     4    1
    15     4     5    1
    16     5     6    1
    17     6     8    1
    18     8    10    1
    19    10    11   ar
    20    11    12   ar
    21    12    13   ar
    22    13    14   ar
    23    14    15   ar
    24    15    16    1
    25    16    17    1
    26    16    18    1
    27    16    19    1
    28     6     7    1
    29    27    28    1
    30    28    29    1
    31    28    30    1
    32    26    21    1
    33     7     3    1
    34    30    21    1
    35    29    23    1
    36    15    10   ar
    37    31    34    1
    38    31    35    1
    39     8     9    1
@<TRIPOS>MOLECULE
*****
 35 39 0 0 0
SMALL
GASTEIGER

@<TRIPOS>ATOM
      1 C          60.8234   88.4321    9.9323 C.2     1  UNL1        0.4048
      2 O          59.9340   89.1436    8.9563 O.2     1  UNL1       -0.2262
      3 N          61.8204   89.2075   10.7416 N.am    1  UNL1       -0.2443
      4 C          62.0411   90.6900   10.6836 C.3     1  UNL1        0.0985
      5 C          63.1287   91.0352   11.6572 C.3     1  UNL1        0.0429
      6 C          63.5802   89.7660   12.3170 C.3     1  UNL1        0.0920
      7 C          62.7716   88.6364   11.7511 C.3     1  UNL1        0.1162
      8 N          64.6522   89.6472   13.3595 N.pl3   1  UNL1       -0.3180
      9 H          65.3582   88.9677   13.2644 H       1  UNL1        0.1482
     10 C          64.6483   90.5637   14.5470 C.ar    1  UNL1        0.1324
     11 N          63.5741   90.4398   15.5865 N.ar    1  UNL1       -0.2294
     12 C          63.5703   91.3562   16.7739 C.ar    1  UNL1        0.1003
     13 C          64.6407   92.3966   16.9219 C.ar    1  UNL1        0.0207
     14 C          65.7150   92.5204   15.8823 C.ar    1  UNL1        0.0083
     15 C          65.7188   91.6039   14.6948 C.ar    1  UNL1        0.1027
     16 C          66.7930   91.7278   13.6553 C.3     1  UNL1        0.4212
     17 F          67.8673   91.8516   12.6157 F       1  UNL1       -0.1658
     18 F          67.7585   91.0348   14.5706 F       1  UNL1       -0.1658
     19 F          65.8275   92.4208   12.7402 F       1  UNL1       -0.1658
     20 O          60.7160   86.9453   10.0990 O.3     1  UNL1       -0.4383
     21 C          61.5701   86.0228   10.5767 C.3     1  UNL1        0.0688
     22 C          62.3130   85.5218    9.3738 C.3     1  UNL1        0.0086
     23 C          63.3661   84.4650    9.5291 C.3     1  UNL1        0.0007
     24 C          63.6763   83.9093   10.8874 C.3     1  UNL1        0.0036
     25 C          62.9334   84.4103   12.0903 C.3     1  UNL1        0.0407
     26 C          61.8803   85.4670   11.9350 C.3     1  UNL1        0.0122
     27 C          61.7529   86.0459    9.4942 C.3     1  UNL1        0.1702
     28 C          62.0028   86.0775    8.0155 C.3     1  UNL1        0.0407
     29 C          63.0559   85.0207    8.1709 C.3     1  UNL1        0.0036
     30 C          61.2599   86.5785    9.2184 C.3     1  UNL1        0.0122
     31 N          60.0324   87.8377   11.6216 N.am    1  UNL1       -0.3288
     32 C          60.5169   87.0796   10.4214 C.2     1  UNL1        0.2184
     33 O          59.7504   87.6229    9.2521 O.2     1  UNL1       -0.2754
     34 H          59.3412   88.5313   11.5196 H       1  UNL1        0.1449
     35 H          60.4056   87.6417   12.5112 H       1  UNL1        0.1449
@<TRIPOS>BOND
     1    31    32   am
     2    32    33    2
     3    21    32    1
     4    21    22    1
     5    22    23    1
     6    23    24    1
     7    24    25    1
     8    25    26    1
     9    25    27    1
    10    27    20    1
    11    20     1    1
    12     1     2    2
    13     1     3   am
    14     3     4    1
    15     4     5    1
    16     5     6    1
    17     6     8    1
    18     8    10    1
    19    10    11   ar
    20    11    12   ar
    21    12    13   ar
    22    13    14   ar
    23    14    15   ar
    24    15    16    1
    25    16    17    1
    26    16    18    1
    27    16    19    1
    28     6     7    1
    29    27    28    1
    30    28    29    1
    31    28    30    1
    32    26    21    1
    33     7     3    1
    34    30    21    1
    35    29    23    1
    36    15    10   ar
    37    31    34    1
    38    31    35    1
    39     8     9    1
@<TRIPOS>MOLECULE
*****
 35 39 0 0 0
SMALL
GASTEIGER

@<TRIPOS>ATOM
      1 C          63.4348   82.5892   12.7662 C.2     1  UNL1        0.4048
      2 O          64.2815   81.5017   12.1743 O.2     1  UNL1       -0.2262
      3 N          62.9912   83.7417   11.9149 N.am    1  UNL1       -0.2443
      4 C          63.3142   83.9416   10.4638 C.3     1  UNL1        0.0985
      5 C          62.6694   85.2202   10.0171 C.3     1  UNL1        0.0429
      6 C          61.9478   85.8105   11.1922 C.3     1  UNL1        0.0920
      7 C          62.1467   84.8967   12.3651 C.3     1  UNL1        0.1162
      8 N          61.1648   87.0899   11.1942 N.pl3   1  UNL1       -0.3180
      9 H          60.1827   87.0660   11.1301 H       1  UNL1        0.1482
     10 C          61.8782   88.4057   11.2938 C.ar    1  UNL1        0.1324
     11 N          62.8805   88.6345   12.3860 N.ar    1  UNL1       -0.2294
     12 C          63.5939   89.9502   12.4856 C.ar    1  UNL1        0.1003
     13 C          63.3048   91.0371   11.4931 C.ar    1  UNL1        0.0207
     14 C          62.3025   90.8082   10.4009 C.ar    1  UNL1        0.0083
     15 C          61.5891   89.4925   10.3013 C.ar    1  UNL1        0.1027
     16 C          60.5867   89.2636    9.2091 C.3     1  UNL1        0.4212
     17 F          59.5843   89.0347    8.1169 F       1  UNL1       -0.1658
     18 F          61.4218   88.1358    8.6791 F       1  UNL1       -0.1658
     19 F          59.7517   90.3914    9.7391 F       1  UNL1       -0.1658
     20 O          63.0317   82.5241   14.2096 O.3     1  UNL1       -0.4383
     21 C          63.8993   83.5344   14.3978 C.3     1  UNL1        0.0688
     22 C          63.2352   84.4355   15.3962 C.3     1  UNL1        0.0086
     23 C          63.9249   85.6871   15.8519 C.3     1  UNL1        0.0007
     24 C          65.2786   86.0377   15.3092 C.3     1  UNL1        0.0036
     25 C          65.9427   85.1366   14.3108 C.3     1  UNL1        0.0407
     26 C          65.2531   83.8849   13.8551 C.3     1  UNL1        0.0122
     27 C          63.0465   83.7670   15.0491 C.3     1  UNL1        0.1702
     28 C          61.8815   84.0849   15.9389 C.3     1  UNL1        0.0407
     29 C          62.5711   85.3366   16.3947 C.3     1  UNL1        0.0036
     30 C          62.5456   83.1838   14.9405 C.3     1  UNL1        0.0122
     31 N          63.7652   80.9410   14.3179 N.am    1  UNL1       -0.3288
     32 C          63.2097   82.2826   13.9420 C.2     1  UNL1        0.2184
     33 O          61.9829   82.0077   13.1239 O.2     1  UNL1       -0.2754
     34 H          63.3126   80.1194   14.0187 H       1  UNL1        0.1449
     35 H          64.5824   80.8819   14.8637 H       1  UNL1        0.1449
@<TRIPOS>BOND
     1    31    32   am
     2    32    33    2
     3    21    32    1
     4    21    22    1
     5    22    23    1
     6    23    24    1
     7    24    25    1
     8    25    26    1
     9    25    27    1
    10    27    20    1
    11    20     1    1
    12     1     2    2
    13     1     3   am
    14     3     4    1
    15     4     5    1
    16     5     6    1
    17     6     8    1
    18     8    10    1
    19    10    11   ar
    20    11    12   ar
    21    12    13   ar
    22    13    14   ar
    23    14    15   ar
    24    15    16    1
    25    16    17    1
    26    16    18    1
    27    16    19    1
    28     6     7    1
    29    27    28    1
    30    28    29    1
    31    28    30    1
    32    26    21    1
    33     7     3    1
    34    30    21    1
    35    29    23    1
    36    15    10   ar
    37    31    34    1
    38    31    35    1
    39     8     9    1
