@<TRIPOS>MOLECULE
*****
 44 51 0 0 0
SMALL
GASTEIGER

@<TRIPOS>ATOM
      1 O          61.2874   86.9230   11.4251 O.2     1  UNL1       -0.2522
      2 C          61.9931   88.1880   11.0356 C.2     1  UNL1        0.3078
      3 N          63.0612   88.7547   11.9232 N.am    1  UNL1       -0.2901
      4 N          61.6307   88.8862    9.7583 N.am    1  UNL1       -0.2403
      5 C          62.3364   90.1512    9.3688 C.3     1  UNL1        0.1216
      6 C          61.9741   90.8494    8.0917 C.3     1  UNL1        0.1189
      7 N          60.9060   90.2826    7.2040 N.pl3   1  UNL1       -0.2696
      8 C          60.2003   89.0176    7.5936 C.ar    1  UNL1        0.0666
      9 C          59.1321   88.4508    6.7059 C.ar    1  UNL1        0.0161
     10 C          58.4264   87.1858    7.0954 C.ar    1  UNL1        0.0014
     11 C          58.7888   86.4876    8.3726 C.ar    1  UNL1        0.0014
     12 C          59.8569   87.0544    9.2603 C.ar    1  UNL1        0.0162
     13 C          60.5626   88.3194    8.8707 C.ar    1  UNL1        0.0689
     14 H          63.5244   89.5850   11.6675 H       1  UNL1        0.1509
     15 C          63.4236   88.0565   13.2004 C.3     1  UNL1        0.0731
     16 C          63.4944   86.5588   13.2424 C.3     1  UNL1        0.0204
     17 C          63.7860   87.3583   14.4776 C.3     1  UNL1        0.0018
     18 C          64.1483   86.6601   15.7547 C.3     1  UNL1        0.0024
     19 C          64.0775   88.1578   15.7127 C.3     1  UNL1        0.0018
     20 C          63.7151   88.8561   14.4356 C.3     1  UNL1        0.0204
     21 C          64.0551   85.6891   15.2504 C.3     1  UNL1        0.0285
     22 C          63.9277   84.3628   14.5615 C.3     1  UNL1        0.0884
     23 O          63.9985   82.8651   14.6034 O.3     1  UNL1       -0.3867
     24 C          64.2192   85.1624   15.7966 C.3     1  UNL1        0.0269
     25 C          63.5653   85.0611   13.2843 C.3     1  UNL1        0.0285
     26 H          64.2440   82.5779   15.4968 H       1  UNL1        0.2102
     27 C          60.5436   90.9808    5.9268 C.ar    1  UNL1        0.1356
     28 C          59.1169   91.3565    5.6562 C.ar    1  UNL1        0.0359
     29 C          58.7546   92.0547    4.3790 C.ar    1  UNL1        0.0190
     30 C          59.8189   92.3772    3.3725 C.ar    1  UNL1        0.0675
     31 C          61.2456   92.0015    3.6431 C.ar    1  UNL1        0.1147
     32 N          61.6080   91.3033    4.9203 N.ar    1  UNL1       -0.2276
     33 N          59.4565   93.0754    2.0952 N.pl3   1  UNL1       -0.3033
     34 C          58.6507   92.3599    1.0519 C.3     1  UNL1        0.1100
     35 C          58.2883   93.0581   -0.2253 C.3     1  UNL1        0.1168
     36 N          58.7318   94.4718   -0.4591 N.3     1  UNL1       -0.1560
     37 C          59.5377   95.1874    0.5843 C.3     1  UNL1        0.1168
     38 C          59.9000   94.4891    1.8614 C.3     1  UNL1        0.1100
     39 S          58.3694   95.1700   -1.7363 S.O2    1  UNL1        0.0422
     40 O          58.7651   93.9508   -2.5151 O.2     1  UNL1       -0.1573
     41 O          57.9737   96.3893   -0.9574 O.2     1  UNL1       -0.1573
     42 C          58.0071   95.8683   -3.0134 C.3     1  UNL1        0.1459
     43 C          56.9887   96.2240   -4.0557 C.3     1  UNL1        0.0270
     44 C          58.3979   96.7219   -4.1833 C.3     1  UNL1        0.0270
@<TRIPOS>BOND
     1     1     2    2
     2     2     3   am
     3    15     3    1
     4    15    16    1
     5    16    17    1
     6    17    18    1
     7    18    19    1
     8    19    20    1
     9    20    21    1
    10    21    22    1
    11    22    23    1
    12    22    24    1
    13    22    25    1
    14     2     4   am
    15     4     5    1
    16     5     6    1
    17     6     7    1
    18     7    27    1
    19    27    28   ar
    20    28    29   ar
    21    29    30   ar
    22    30    33    1
    23    33    34    1
    24    34    35    1
    25    35    36    1
    26    36    39    1
    27    39    40    2
    28    39    41    2
    29    39    42    1
    30    42    43    1
    31    43    44    1
    32    36    37    1
    33    37    38    1
    34    30    31   ar
    35    31    32   ar
    36     7     8    1
    37     8     9   ar
    38     9    10   ar
    39    10    11   ar
    40    11    12   ar
    41    12    13   ar
    42    20    15    1
    43    13     4    1
    44    25    16    1
    45    32    27   ar
    46    13     8   ar
    47    24    18    1
    48    38    33    1
    49    44    42    1
    50     3    14    1
    51    23    26    1
