@<TRIPOS>MOLECULE
*****
 29 30 0 0 0
SMALL
GASTEIGER

@<TRIPOS>ATOM
      1 C          63.9370   90.9022   12.6062 C.ar    1  UNL1        0.1398
      2 C          63.4961   91.3716   11.2515 C.ar    1  UNL1        0.0368
      3 C          62.7751   90.4326   10.3304 C.ar    1  UNL1        0.0031
      4 C          62.4948   89.0243   10.7641 C.ar    1  UNL1        0.0001
      5 C          62.9357   88.5549   12.1188 C.ar    1  UNL1        0.0042
      6 C          63.6568   89.4939   13.0398 C.ar    1  UNL1        0.0775
      7 C          61.7737   88.0853    9.8430 C.ar    1  UNL1        0.0029
      8 C          60.3215   88.3027    9.5369 C.ar    1  UNL1        0.0207
      9 C          59.6004   87.3637    8.6158 C.ar    1  UNL1        0.0987
     10 N          60.3316   86.2074    8.0009 N.ar    1  UNL1       -0.2426
     11 C          61.7838   85.9900    8.3069 C.ar    1  UNL1        0.1249
     12 C          62.5049   86.9290    9.2280 C.ar    1  UNL1        0.0203
     13 C          62.5150   84.8336    7.6920 C.3     1  UNL1        0.3581
     14 F          62.2896   84.4847    6.2506 F       1  UNL1       -0.1915
     15 F          63.4716   84.0261    8.5183 F       1  UNL1       -0.1915
     16 C          64.0977   89.0245   14.3946 C.3     1  UNL1        0.3439
     17 F          64.7946   87.7043   14.5408 F       1  UNL1       -0.1931
     18 F          63.8416   89.8753   15.6031 F       1  UNL1       -0.1931
     19 O          64.6581   91.8412   13.5273 O.3     1  UNL1       -0.4742
     20 C          65.7673   92.7033   13.0015 C.3     1  UNL1        0.2192
     21 C          67.1696   92.1733   12.9513 C.3     1  UNL1        0.0798
     22 C          67.3160   92.6932   11.5519 C.3     1  UNL1        0.0193
     23 N          68.5720   91.6433   12.9010 N.3     1  UNL1       -0.3203
     24 H          68.6434   90.8141   13.4907 H       1  UNL1        0.1189
     25 H          69.2176   92.3572   13.2386 H       1  UNL1        0.1189
     26 C          67.0233   91.6533   14.3506 C.3     1  UNL1        0.0179
     27 C          65.9975   92.6009   16.5415 C.3     1  UNL1        0.0000
     28 C          67.0893   92.5991   15.5129 C.3     1  UNL1        0.0014
     29 C          68.2473   93.5433   15.6467 C.3     1  UNL1        0.0000
@<TRIPOS>BOND
     1    27    28    1
     2    28    29    1
     3    28    26    1
     4    26    21    1
     5    21    22    1
     6    21    23    1
     7    21    20    1
     8    20    19    1
     9    19     1    1
    10     1     2   ar
    11     2     3   ar
    12     3     4   ar
    13     4     7    1
    14     7     8   ar
    15     8     9   ar
    16     9    10   ar
    17    10    11   ar
    18    11    13    1
    19    13    14    1
    20    13    15    1
    21    11    12   ar
    22     4     5   ar
    23     5     6   ar
    24     6    16    1
    25    16    17    1
    26    16    18    1
    27     6     1   ar
    28    12     7   ar
    29    23    24    1
    30    23    25    1
@<TRIPOS>MOLECULE
*****
 29 30 0 0 0
SMALL
GASTEIGER

@<TRIPOS>ATOM
      1 C          63.8691   91.0500   12.2903 C.ar    1  UNL1        0.1398
      2 C          63.4450   91.4253   10.9013 C.ar    1  UNL1        0.0368
      3 C          62.7132   90.4332   10.0469 C.ar    1  UNL1        0.0031
      4 C          62.4055   89.0658   10.5813 C.ar    1  UNL1        0.0001
      5 C          62.8296   88.6906   11.9703 C.ar    1  UNL1        0.0042
      6 C          63.5614   89.6827   12.8248 C.ar    1  UNL1        0.0775
      7 C          61.6736   88.0737    9.7268 C.ar    1  UNL1        0.0029
      8 C          60.1990   88.2248    9.4978 C.ar    1  UNL1        0.0207
      9 C          59.4671   87.2327    8.6433 C.ar    1  UNL1        0.0987
     10 N          60.2100   86.0895    8.0178 N.ar    1  UNL1       -0.2426
     11 C          61.6846   85.9385    8.2468 C.ar    1  UNL1        0.1249
     12 C          62.4165   86.9306    9.1013 C.ar    1  UNL1        0.0203
     13 C          62.4276   84.7952    7.6213 C.3     1  UNL1        0.3581
     14 F          62.1564   84.4149    6.1959 F       1  UNL1       -0.1915
     15 F          63.4416   84.0324    8.4212 F       1  UNL1       -0.1915
     16 C          63.9855   89.3074   14.2138 C.3     1  UNL1        0.3439
     17 F          63.6495   90.2039   15.3685 F       1  UNL1       -0.1931
     18 F          64.7456   88.0357   14.4481 F       1  UNL1       -0.1931
     19 O          64.6009   92.0421   13.1448 O.3     1  UNL1       -0.4742
     20 C          65.6621   92.9135   12.5409 C.3     1  UNL1        0.2192
     21 C          67.0679   92.4056   12.4155 C.3     1  UNL1        0.0798
     22 C          67.2636   92.5827   13.8921 C.3     1  UNL1        0.0193
     23 N          68.4737   91.8977   12.2901 N.3     1  UNL1       -0.3203
     24 H          68.8408   92.1370   11.3690 H       1  UNL1        0.1189
     25 H          68.4808   90.8844   12.4062 H       1  UNL1        0.1189
     26 C          66.8722   92.2285   10.9389 C.3     1  UNL1        0.0179
     27 C          67.3784   94.5767    9.9493 C.3     1  UNL1        0.0000
     28 C          67.6228   93.0969    9.9734 C.3     1  UNL1        0.0014
     29 C          68.6178   92.4857    9.0319 C.3     1  UNL1        0.0000
@<TRIPOS>BOND
     1    27    28    1
     2    28    29    1
     3    28    26    1
     4    26    21    1
     5    21    22    1
     6    21    23    1
     7    21    20    1
     8    20    19    1
     9    19     1    1
    10     1     2   ar
    11     2     3   ar
    12     3     4   ar
    13     4     7    1
    14     7     8   ar
    15     8     9   ar
    16     9    10   ar
    17    10    11   ar
    18    11    13    1
    19    13    14    1
    20    13    15    1
    21    11    12   ar
    22     4     5   ar
    23     5     6   ar
    24     6    16    1
    25    16    17    1
    26    16    18    1
    27     6     1   ar
    28    12     7   ar
    29    23    24    1
    30    23    25    1
@<TRIPOS>MOLECULE
*****
 29 30 0 0 0
SMALL
GASTEIGER

@<TRIPOS>ATOM
      1 C          65.0500   92.1048   12.5376 C.ar    1  UNL1        0.1398
      2 C          63.8998   91.2183   12.1620 C.ar    1  UNL1        0.0368
      3 C          63.5499   90.0393   13.0207 C.ar    1  UNL1        0.0031
      4 C          64.3503   89.7467   14.2552 C.ar    1  UNL1        0.0001
      5 C          65.5005   90.6331   14.6308 C.ar    1  UNL1        0.0042
      6 C          65.8504   91.8122   13.7721 C.ar    1  UNL1        0.0775
      7 C          64.0004   88.5677   15.1139 C.ar    1  UNL1        0.0029
      8 C          63.2860   88.7743   16.4166 C.ar    1  UNL1        0.0207
      9 C          62.9361   87.5953   17.2753 C.ar    1  UNL1        0.0987
     10 N          63.3006   86.2096   16.8314 N.ar    1  UNL1       -0.2426
     11 C          64.0149   86.0030   15.5287 C.ar    1  UNL1        0.1249
     12 C          64.3648   87.1820   14.6700 C.ar    1  UNL1        0.0203
     13 C          64.3794   84.6173   15.0848 C.3     1  UNL1        0.3581
     14 F          63.5253   83.4518   15.4873 F       1  UNL1       -0.1915
     15 F          65.5980   84.3971   14.2383 F       1  UNL1       -0.1915
     16 C          67.0007   92.6986   14.1478 C.3     1  UNL1        0.3439
     17 F          66.7595   94.1430   14.4726 F       1  UNL1       -0.1931
     18 F          68.3921   92.1407   14.1986 F       1  UNL1       -0.1931
     19 O          65.3999   93.2838   11.6789 O.3     1  UNL1       -0.4742
     20 C          65.9453   93.0703   10.2980 C.3     1  UNL1        0.2192
     21 C          67.3458   93.4964    9.9706 C.3     1  UNL1        0.0798
     22 C          67.6807   92.0896    9.5723 C.3     1  UNL1        0.0193
     23 N          68.7462   93.9225    9.6431 N.3     1  UNL1       -0.3203
     24 H          69.0140   94.7015   10.2446 H       1  UNL1        0.1189
     25 H          68.7933   94.2148    8.6670 H       1  UNL1        0.1189
     26 C          67.0109   94.9033   10.3689 C.3     1  UNL1        0.0179
     27 C          65.0674   96.5641    9.9060 C.3     1  UNL1        0.0000
     28 C          66.2591   95.7918    9.4228 C.3     1  UNL1        0.0014
     29 C          66.6989   95.9082    7.9934 C.3     1  UNL1        0.0000
@<TRIPOS>BOND
     1    27    28    1
     2    28    29    1
     3    28    26    1
     4    26    21    1
     5    21    22    1
     6    21    23    1
     7    21    20    1
     8    20    19    1
     9    19     1    1
    10     1     2   ar
    11     2     3   ar
    12     3     4   ar
    13     4     7    1
    14     7     8   ar
    15     8     9   ar
    16     9    10   ar
    17    10    11   ar
    18    11    13    1
    19    13    14    1
    20    13    15    1
    21    11    12   ar
    22     4     5   ar
    23     5     6   ar
    24     6    16    1
    25    16    17    1
    26    16    18    1
    27     6     1   ar
    28    12     7   ar
    29    23    24    1
    30    23    25    1
@<TRIPOS>MOLECULE
*****
 29 30 0 0 0
SMALL
GASTEIGER

@<TRIPOS>ATOM
      1 C          63.0394   86.9614   12.3081 C.ar    1  UNL1        0.1398
      2 C          63.7603   86.6943   13.5961 C.ar    1  UNL1        0.0368
      3 C          64.2790   87.8380   14.4164 C.ar    1  UNL1        0.0031
      4 C          64.0770   89.2488   13.9486 C.ar    1  UNL1        0.0001
      5 C          63.3561   89.5159   12.6606 C.ar    1  UNL1        0.0042
      6 C          62.8373   88.3722   11.8403 C.ar    1  UNL1        0.0775
      7 C          64.5957   90.3925   14.7689 C.ar    1  UNL1        0.0029
      8 C          63.7841   90.9238   15.9129 C.ar    1  UNL1        0.0207
      9 C          64.3029   92.0674   16.7332 C.ar    1  UNL1        0.0987
     10 N          65.6333   92.6798   16.4095 N.ar    1  UNL1       -0.2426
     11 C          66.4450   92.1485   15.2654 C.ar    1  UNL1        0.1249
     12 C          65.9262   91.0048   14.4451 C.ar    1  UNL1        0.0203
     13 C          67.7755   92.7609   14.9416 C.3     1  UNL1        0.3581
     14 F          68.2079   94.0220   15.6291 F       1  UNL1       -0.1915
     15 F          68.6735   92.1122   13.9303 F       1  UNL1       -0.1915
     16 C          62.1165   88.6394   10.5523 C.3     1  UNL1        0.3439
     17 F          62.4862   87.8778    9.3140 F       1  UNL1       -0.1931
     18 F          61.0259   89.6680   10.5025 F       1  UNL1       -0.1931
     19 O          62.5206   85.8177   11.4878 O.3     1  UNL1       -0.4742
     20 C          62.6893   84.4088   11.9740 C.3     1  UNL1        0.2192
     21 C          63.8199   83.5680   11.4592 C.3     1  UNL1        0.0798
     22 C          63.5446   84.0510   10.0660 C.3     1  UNL1        0.0193
     23 N          64.9504   82.7273   10.9445 N.3     1  UNL1       -0.3203
     24 H          65.0532   81.8995   11.5315 H       1  UNL1        0.1189
     25 H          65.8144   83.2690   10.9664 H       1  UNL1        0.1189
     26 C          64.0951   83.0851   12.8525 C.3     1  UNL1        0.0179
     27 C          62.4339   82.7968   14.8291 C.3     1  UNL1        0.0000
     28 C          63.0697   82.2659   13.5785 C.3     1  UNL1        0.0014
     29 C          62.6800   80.9156   13.0541 C.3     1  UNL1        0.0000
@<TRIPOS>BOND
     1    27    28    1
     2    28    29    1
     3    28    26    1
     4    26    21    1
     5    21    22    1
     6    21    23    1
     7    21    20    1
     8    20    19    1
     9    19     1    1
    10     1     2   ar
    11     2     3   ar
    12     3     4   ar
    13     4     7    1
    14     7     8   ar
    15     8     9   ar
    16     9    10   ar
    17    10    11   ar
    18    11    13    1
    19    13    14    1
    20    13    15    1
    21    11    12   ar
    22     4     5   ar
    23     5     6   ar
    24     6    16    1
    25    16    17    1
    26    16    18    1
    27     6     1   ar
    28    12     7   ar
    29    23    24    1
    30    23    25    1
@<TRIPOS>MOLECULE
*****
 29 30 0 0 0
SMALL
GASTEIGER

@<TRIPOS>ATOM
      1 C          63.8982   89.5559   13.4515 C.ar    1  UNL1        0.1398
      2 C          64.4384   88.7223   14.5754 C.ar    1  UNL1        0.0368
      3 C          64.2586   87.2332   14.5582 C.ar    1  UNL1        0.0031
      4 C          63.5386   86.5777   13.4172 C.ar    1  UNL1        0.0001
      5 C          62.9984   87.4114   12.2933 C.ar    1  UNL1        0.0042
      6 C          63.1782   88.9005   12.3105 C.ar    1  UNL1        0.0775
      7 C          63.3589   85.0886   13.4001 C.ar    1  UNL1        0.0029
      8 C          62.9534   84.3677   14.6514 C.ar    1  UNL1        0.0207
      9 C          62.7736   82.8786   14.6343 C.ar    1  UNL1        0.0987
     10 N          62.9993   82.1105   13.3659 N.ar    1  UNL1       -0.2426
     11 C          63.4048   82.8314   12.1146 C.ar    1  UNL1        0.1249
     12 C          63.5846   84.3205   12.1317 C.ar    1  UNL1        0.0203
     13 C          63.6306   82.0632   10.8460 C.3     1  UNL1        0.3581
     14 F          62.9416   80.7480   10.6330 F       1  UNL1       -0.1915
     15 F          64.5453   82.6103    9.7907 F       1  UNL1       -0.1915
     16 C          62.6380   89.7341   11.1865 C.3     1  UNL1        0.3439
     17 F          61.8238   90.9581   11.4847 F       1  UNL1       -0.1931
     18 F          62.9118   89.3437    9.7643 F       1  UNL1       -0.1931
     19 O          64.0779   91.0450   13.4686 O.3     1  UNL1       -0.4742
     20 C          65.4130   91.6354   13.8134 C.3     1  UNL1        0.2192
     21 C          65.9211   92.8305   13.0627 C.3     1  UNL1        0.0798
     22 C          65.1665   92.3863   11.8448 C.3     1  UNL1        0.0193
     23 N          66.4291   94.0257   12.3121 N.3     1  UNL1       -0.3203
     24 H          67.3475   94.2872   12.6707 H       1  UNL1        0.1189
     25 H          65.7818   94.8044   12.4345 H       1  UNL1        0.1189
     26 C          66.6756   93.2747   14.2807 C.3     1  UNL1        0.0179
     27 C          68.1563   92.3502   16.2048 C.3     1  UNL1        0.0000
     28 C          67.8794   92.5062   14.7389 C.3     1  UNL1        0.0014
     29 C          68.8064   91.8935   13.7312 C.3     1  UNL1        0.0000
@<TRIPOS>BOND
     1    27    28    1
     2    28    29    1
     3    28    26    1
     4    26    21    1
     5    21    22    1
     6    21    23    1
     7    21    20    1
     8    20    19    1
     9    19     1    1
    10     1     2   ar
    11     2     3   ar
    12     3     4   ar
    13     4     7    1
    14     7     8   ar
    15     8     9   ar
    16     9    10   ar
    17    10    11   ar
    18    11    13    1
    19    13    14    1
    20    13    15    1
    21    11    12   ar
    22     4     5   ar
    23     5     6   ar
    24     6    16    1
    25    16    17    1
    26    16    18    1
    27     6     1   ar
    28    12     7   ar
    29    23    24    1
    30    23    25    1
@<TRIPOS>MOLECULE
*****
 29 30 0 0 0
SMALL
GASTEIGER

@<TRIPOS>ATOM
      1 C          64.0295   89.1816   13.7446 C.ar    1  UNL1        0.1398
      2 C          64.4696   88.2231   14.8111 C.ar    1  UNL1        0.0368
      3 C          64.1986   86.7557   14.6590 C.ar    1  UNL1        0.0031
      4 C          63.4876   86.2467   13.4403 C.ar    1  UNL1        0.0001
      5 C          63.0475   87.2051   12.3738 C.ar    1  UNL1        0.0042
      6 C          63.3185   88.6726   12.5259 C.ar    1  UNL1        0.0775
      7 C          63.2166   84.7792   13.2882 C.ar    1  UNL1        0.0029
      8 C          62.6066   84.0078   14.4208 C.ar    1  UNL1        0.0207
      9 C          62.3356   82.5404   14.2687 C.ar    1  UNL1        0.0987
     10 N          62.6747   81.8443   12.9840 N.ar    1  UNL1       -0.2426
     11 C          63.2846   82.6157   11.8514 C.ar    1  UNL1        0.1249
     12 C          63.5556   84.0832   12.0035 C.ar    1  UNL1        0.0203
     13 C          63.6237   81.9196   10.5666 C.3     1  UNL1        0.3581
     14 F          62.9777   80.6081   10.2311 F       1  UNL1       -0.1915
     15 F          64.6087   82.5351    9.6175 F       1  UNL1       -0.1915
     16 C          62.8783   89.6311   11.4592 C.3     1  UNL1        0.3439
     17 F          62.8529   89.1959   10.0239 F       1  UNL1       -0.1931
     18 F          62.4636   91.0246   11.8278 F       1  UNL1       -0.1931
     19 O          64.3005   90.6491   13.8967 O.3     1  UNL1       -0.4742
     20 C          65.6975   91.1311   14.1534 C.3     1  UNL1        0.2192
     21 C          66.0051   92.5985   14.1064 C.3     1  UNL1        0.0798
     22 C          66.6333   92.5103   15.4656 C.3     1  UNL1        0.0193
     23 N          66.3127   94.0659   14.0594 N.3     1  UNL1       -0.3203
     24 H          65.6058   94.5437   13.5006 H       1  UNL1        0.1189
     25 H          67.2312   94.2074   13.6392 H       1  UNL1        0.1189
     26 C          65.3768   92.6867   12.7472 C.3     1  UNL1        0.0179
     27 C          65.8047   94.3265   10.7780 C.3     1  UNL1        0.0000
     28 C          66.1988   93.1134   11.5673 C.3     1  UNL1        0.0014
     29 C          67.4150   92.3269   11.1766 C.3     1  UNL1        0.0000
@<TRIPOS>BOND
     1    27    28    1
     2    28    29    1
     3    28    26    1
     4    26    21    1
     5    21    22    1
     6    21    23    1
     7    21    20    1
     8    20    19    1
     9    19     1    1
    10     1     2   ar
    11     2     3   ar
    12     3     4   ar
    13     4     7    1
    14     7     8   ar
    15     8     9   ar
    16     9    10   ar
    17    10    11   ar
    18    11    13    1
    19    13    14    1
    20    13    15    1
    21    11    12   ar
    22     4     5   ar
    23     5     6   ar
    24     6    16    1
    25    16    17    1
    26    16    18    1
    27     6     1   ar
    28    12     7   ar
    29    23    24    1
    30    23    25    1
@<TRIPOS>MOLECULE
*****
 29 30 0 0 0
SMALL
GASTEIGER

@<TRIPOS>ATOM
      1 C          61.9913   88.9852   10.6531 C.ar    1  UNL1        0.1398
      2 C          62.0722   90.3960   10.1499 C.ar    1  UNL1        0.0368
      3 C          63.0276   91.3642   10.7822 C.ar    1  UNL1        0.0031
      4 C          63.9022   90.9216   11.9176 C.ar    1  UNL1        0.0001
      5 C          63.8213   89.5109   12.4208 C.ar    1  UNL1        0.0042
      6 C          62.8659   88.5427   11.7885 C.ar    1  UNL1        0.0775
      7 C          64.8576   91.8899   12.5498 C.ar    1  UNL1        0.0029
      8 C          65.4436   93.0051   11.7358 C.ar    1  UNL1        0.0207
      9 C          66.3990   93.9733   12.3680 C.ar    1  UNL1        0.0987
     10 N          66.7685   93.8263   13.8143 N.ar    1  UNL1       -0.2426
     11 C          66.1825   92.7110   14.6284 C.ar    1  UNL1        0.1249
     12 C          65.2271   91.7428   13.9961 C.ar    1  UNL1        0.0203
     13 C          66.5519   92.5639   16.0747 C.3     1  UNL1        0.3581
     14 F          65.4872   92.6178   17.1300 F       1  UNL1       -0.1915
     15 F          67.9860   92.3629   16.4658 F       1  UNL1       -0.1915
     16 C          62.7851   87.1319   12.2918 C.3     1  UNL1        0.3439
     17 F          61.7352   86.2038   11.7567 F       1  UNL1       -0.1931
     18 F          63.7541   86.6493   13.3300 F       1  UNL1       -0.1931
     19 O          61.0359   88.0170   10.0209 O.3     1  UNL1       -0.4742
     20 C          60.7279   88.1154    8.5562 C.3     1  UNL1        0.2192
     21 C          59.6859   87.2246    7.9473 C.3     1  UNL1        0.0798
     22 C          58.9926   88.4259    7.3763 C.3     1  UNL1        0.0193
     23 N          58.6439   86.3338    7.3385 N.3     1  UNL1       -0.3203
     24 H          58.5245   85.5039    7.9194 H       1  UNL1        0.1189
     25 H          58.9398   86.0544    6.4032 H       1  UNL1        0.1189
     26 C          60.3793   86.0233    8.5184 C.3     1  UNL1        0.0179
     27 C          62.9333   85.5474    8.5251 C.3     1  UNL1        0.0000
     28 C          61.5994   85.4702    7.8436 C.3     1  UNL1        0.0014
     29 C          61.4855   84.8400    6.4871 C.3     1  UNL1        0.0000
@<TRIPOS>BOND
     1    27    28    1
     2    28    29    1
     3    28    26    1
     4    26    21    1
     5    21    22    1
     6    21    23    1
     7    21    20    1
     8    20    19    1
     9    19     1    1
    10     1     2   ar
    11     2     3   ar
    12     3     4   ar
    13     4     7    1
    14     7     8   ar
    15     8     9   ar
    16     9    10   ar
    17    10    11   ar
    18    11    13    1
    19    13    14    1
    20    13    15    1
    21    11    12   ar
    22     4     5   ar
    23     5     6   ar
    24     6    16    1
    25    16    17    1
    26    16    18    1
    27     6     1   ar
    28    12     7   ar
    29    23    24    1
    30    23    25    1
@<TRIPOS>MOLECULE
*****
 29 30 0 0 0
SMALL
GASTEIGER

@<TRIPOS>ATOM
      1 C          62.0308   88.4400   11.8228 C.ar    1  UNL1        0.1398
      2 C          63.1647   88.2804   12.7917 C.ar    1  UNL1        0.0368
      3 C          64.1159   89.4162   13.0266 C.ar    1  UNL1        0.0031
      4 C          63.9334   90.7115   12.2927 C.ar    1  UNL1        0.0001
      5 C          62.7995   90.8711   11.3238 C.ar    1  UNL1        0.0042
      6 C          61.8482   89.7354   11.0888 C.ar    1  UNL1        0.0775
      7 C          64.8846   91.8472   12.5276 C.ar    1  UNL1        0.0029
      8 C          65.1397   92.8490   11.4408 C.ar    1  UNL1        0.0207
      9 C          66.0909   93.9847   11.6757 C.ar    1  UNL1        0.0987
     10 N          66.7872   94.1187   12.9975 N.ar    1  UNL1       -0.2426
     11 C          66.5322   93.1169   14.0844 C.ar    1  UNL1        0.1249
     12 C          65.5809   91.9811   13.8494 C.ar    1  UNL1        0.0203
     13 C          67.2285   93.2507   15.4063 C.3     1  UNL1        0.3581
     14 F          66.5703   92.7440   16.6553 F       1  UNL1       -0.1915
     15 F          68.5828   93.8913   15.4791 F       1  UNL1       -0.1915
     16 C          60.7143   89.8950   10.1198 C.3     1  UNL1        0.3439
     17 F          60.8346   89.3487    8.7280 F       1  UNL1       -0.1931
     18 F          59.4602   90.6009   10.5427 F       1  UNL1       -0.1931
     19 O          61.0795   87.3043   11.5878 O.3     1  UNL1       -0.4742
     20 C          61.1241   86.5437   10.2957 C.3     1  UNL1        0.2192
     21 C          62.2352   85.5700   10.0365 C.3     1  UNL1        0.0798
     22 C          62.0995   85.0430   11.4343 C.3     1  UNL1        0.0193
     23 N          63.3464   84.5963    9.7773 N.3     1  UNL1       -0.3203
     24 H          63.9960   84.9944    9.0991 H       1  UNL1        0.1189
     25 H          62.9586   83.7284    9.4076 H       1  UNL1        0.1189
     26 C          62.3710   86.0971    8.6387 C.3     1  UNL1        0.0179
     27 C          60.0450   85.9610    7.4891 C.3     1  UNL1        0.0000
     28 C          61.4904   85.5643    7.5475 C.3     1  UNL1        0.0014
     29 C          62.0553   84.6347    6.5146 C.3     1  UNL1        0.0000
@<TRIPOS>BOND
     1    27    28    1
     2    28    29    1
     3    28    26    1
     4    26    21    1
     5    21    22    1
     6    21    23    1
     7    21    20    1
     8    20    19    1
     9    19     1    1
    10     1     2   ar
    11     2     3   ar
    12     3     4   ar
    13     4     7    1
    14     7     8   ar
    15     8     9   ar
    16     9    10   ar
    17    10    11   ar
    18    11    13    1
    19    13    14    1
    20    13    15    1
    21    11    12   ar
    22     4     5   ar
    23     5     6   ar
    24     6    16    1
    25    16    17    1
    26    16    18    1
    27     6     1   ar
    28    12     7   ar
    29    23    24    1
    30    23    25    1
@<TRIPOS>MOLECULE
*****
 29 30 0 0 0
SMALL
GASTEIGER

@<TRIPOS>ATOM
      1 C          61.9541   88.2966   11.6598 C.ar    1  UNL1        0.1398
      2 C          63.0663   87.9658   12.6103 C.ar    1  UNL1        0.0368
      3 C          64.0073   89.0410   13.0670 C.ar    1  UNL1        0.0031
      4 C          63.8361   90.4469   12.5732 C.ar    1  UNL1        0.0001
      5 C          62.7239   90.7778   11.6227 C.ar    1  UNL1        0.0042
      6 C          61.7829   89.7026   11.1660 C.ar    1  UNL1        0.0775
      7 C          64.7771   91.5221   13.0299 C.ar    1  UNL1        0.0029
      8 C          65.3706   91.4643   14.4063 C.ar    1  UNL1        0.0207
      9 C          66.3116   92.5394   14.8630 C.ar    1  UNL1        0.0987
     10 N          66.6591   93.6724   13.9434 N.ar    1  UNL1       -0.2426
     11 C          66.0655   93.7301   12.5671 C.ar    1  UNL1        0.1249
     12 C          65.1245   92.6550   12.1103 C.ar    1  UNL1        0.0203
     13 C          66.4130   94.8631   11.6474 C.3     1  UNL1        0.3581
     14 F          65.9906   96.2617   11.9874 F       1  UNL1       -0.1915
     15 F          67.1827   94.5975   10.3877 F       1  UNL1       -0.1915
     16 C          60.6706   90.0335   10.2155 C.3     1  UNL1        0.3439
     17 F          60.7725   89.6333    8.7734 F       1  UNL1       -0.1931
     18 F          59.4566   90.7646   10.7070 F       1  UNL1       -0.1931
     19 O          61.0131   87.2215   11.2031 O.3     1  UNL1       -0.4742
     20 C          61.5090   85.8173   11.0237 C.3     1  UNL1        0.2192
     21 C          62.3710   85.4710    9.8460 C.3     1  UNL1        0.0798
     22 C          63.0659   84.4223   10.6629 C.3     1  UNL1        0.0193
     23 N          63.2330   85.1247    8.6682 N.3     1  UNL1       -0.3203
     24 H          63.3706   85.9549    8.0918 H       1  UNL1        0.1189
     25 H          62.7775   84.3986    8.1153 H       1  UNL1        0.1189
     26 C          61.6761   86.5197    9.0290 C.3     1  UNL1        0.0179
     27 C          60.9031   85.1085    6.9892 C.3     1  UNL1        0.0000
     28 C          60.6082   86.1243    8.0528 C.3     1  UNL1        0.0014
     29 C          59.2452   86.7448    8.1401 C.3     1  UNL1        0.0000
@<TRIPOS>BOND
     1    27    28    1
     2    28    29    1
     3    28    26    1
     4    26    21    1
     5    21    22    1
     6    21    23    1
     7    21    20    1
     8    20    19    1
     9    19     1    1
    10     1     2   ar
    11     2     3   ar
    12     3     4   ar
    13     4     7    1
    14     7     8   ar
    15     8     9   ar
    16     9    10   ar
    17    10    11   ar
    18    11    13    1
    19    13    14    1
    20    13    15    1
    21    11    12   ar
    22     4     5   ar
    23     5     6   ar
    24     6    16    1
    25    16    17    1
    26    16    18    1
    27     6     1   ar
    28    12     7   ar
    29    23    24    1
    30    23    25    1
