@<TRIPOS>MOLECULE
*****
 29 33 0 0 0
SMALL
GASTEIGER

@<TRIPOS>ATOM
      1 C          63.0527   84.6182   15.4876 C.ar    1  UNL1        0.1845
      2 N          62.4185   84.5587   16.8456 N.ar    1  UNL1       -0.1274
      3 N          62.4144   85.9458   17.4165 N.ar    1  UNL1       -0.1316
      4 C          63.0461   86.8626   16.4113 C.ar    1  UNL1        0.1615
      5 N          63.4406   86.0421   15.2192 N.ar    1  UNL1       -0.2944
      6 C          64.1020   86.6976   14.0432 C.3     1  UNL1        0.1302
      7 C          64.3690   88.1736   14.0594 C.3     1  UNL1        0.1186
      8 N          63.9746   88.9941   15.2515 N.am    1  UNL1       -0.2688
      9 C          64.2415   90.4700   15.2678 C.2     1  UNL1        0.2493
     10 O          63.8470   91.2905   16.4599 O.2     1  UNL1       -0.2699
     11 C          63.3131   88.3385   16.4275 C.3     1  UNL1        0.1343
     12 C          62.9186   89.1590   17.6196 C.3     1  UNL1        0.0298
     13 C          62.5260   79.9359   13.1045 C.3     1  UNL1        0.0594
     14 C          63.0202   81.3054   13.4653 C.ar    1  UNL1        0.0887
     15 N          62.4719   82.1828   14.5515 N.ar    1  UNL1       -0.2396
     16 C          63.2623   83.4576   14.5607 C.ar    1  UNL1        0.1237
     17 C          64.2990   83.3682   13.4803 C.ar    1  UNL1        0.0588
     18 S          64.1494   82.0380   12.8034 S.2     1  UNL1       -0.0701
     19 C          64.9029   91.1254   14.0918 C.ar    1  UNL1        0.0536
     20 C          64.1295   91.3530   12.8269 C.ar    1  UNL1        0.0045
     21 C          64.7910   92.0085   11.6510 C.ar    1  UNL1        0.0006
     22 C          66.2259   92.4364   11.7399 C.ar    1  UNL1        0.0060
     23 C          66.9993   92.2088   13.0049 C.ar    1  UNL1        0.0006
     24 C          66.3379   91.5534   14.1808 C.ar    1  UNL1        0.0045
     25 C          66.8874   93.0919   10.5640 C.ar    1  UNL1        0.0295
     26 C          67.9158   92.4662    9.6690 C.ar    1  UNL1        0.0070
     27 C          68.3006   93.4757    8.6285 C.ar    1  UNL1        0.0075
     28 C          67.5100   94.7254    8.8804 C.ar    1  UNL1        0.0354
     29 S          66.6366   94.4882   10.0767 S.2     1  UNL1       -0.0864
@<TRIPOS>BOND
     1    13    14    1
     2    14    15   ar
     3    15    16   ar
     4    16     1    1
     5     1     2   ar
     6     2     3   ar
     7     3     4   ar
     8     4     5   ar
     9     5     6    1
    10     6     7    1
    11     7     8    1
    12     8     9   am
    13     9    10    2
    14     9    19    1
    15    19    20   ar
    16    20    21   ar
    17    21    22   ar
    18    22    25    1
    19    25    26   ar
    20    26    27   ar
    21    27    28   ar
    22    28    29   ar
    23    22    23   ar
    24    23    24   ar
    25     8    11    1
    26    11    12    1
    27    16    17   ar
    28    17    18   ar
    29    18    14   ar
    30     5     1   ar
    31    24    19   ar
    32    11     4    1
    33    29    25   ar
@<TRIPOS>MOLECULE
*****
 29 33 0 0 0
SMALL
GASTEIGER

@<TRIPOS>ATOM
      1 C          64.1925   90.9724   14.4081 C.ar    1  UNL1        0.1845
      2 N          64.0182   91.5974   15.7605 N.ar    1  UNL1       -0.1274
      3 N          63.6189   90.5177   16.7221 N.ar    1  UNL1       -0.1316
      4 C          63.5464   89.2254   15.9640 C.ar    1  UNL1        0.1615
      5 N          63.9009   89.5064   14.5339 N.ar    1  UNL1       -0.2944
      6 C          63.9124   88.3911   13.5309 C.3     1  UNL1        0.1302
      7 C          63.5694   86.9947   13.9581 C.3     1  UNL1        0.1186
      8 N          63.2149   86.7137   15.3883 N.am    1  UNL1       -0.2688
      9 C          62.8719   85.3173   15.8155 C.2     1  UNL1        0.2493
     10 O          62.5173   85.0363   17.2457 O.2     1  UNL1       -0.2699
     11 C          63.2034   87.8291   16.3913 C.3     1  UNL1        0.1343
     12 C          62.8489   87.5480   17.8214 C.3     1  UNL1        0.0298
     13 C          66.5063   94.3382   11.0617 C.3     1  UNL1        0.0594
     14 C          65.6524   93.2349   11.6124 C.ar    1  UNL1        0.0887
     15 N          65.5558   92.8303   13.0537 N.ar    1  UNL1       -0.2396
     16 C          64.5888   91.6878   13.1506 C.ar    1  UNL1        0.1237
     17 C          64.0877   91.3861   11.7694 C.ar    1  UNL1        0.0588
     18 S          64.7450   92.3423   10.8187 S.2     1  UNL1       -0.0701
     19 C          62.8833   84.2020   14.8126 C.ar    1  UNL1        0.0536
     20 C          63.7660   84.2902   13.6030 C.ar    1  UNL1        0.0045
     21 C          63.7775   83.1748   12.6000 C.ar    1  UNL1        0.0006
     22 C          62.9063   81.9714   12.8067 C.ar    1  UNL1        0.0060
     23 C          62.0236   81.8832   14.0163 C.ar    1  UNL1        0.0006
     24 C          62.0121   82.9985   15.0192 C.ar    1  UNL1        0.0045
     25 C          62.9177   80.8560   11.8037 C.ar    1  UNL1        0.0295
     26 C          63.2461   80.9846   10.3458 C.ar    1  UNL1        0.0070
     27 C          63.1341   79.6243    9.7237 C.ar    1  UNL1        0.0075
     28 C          62.7366   78.6549   10.7972 C.ar    1  UNL1        0.0354
     29 S          62.6029   79.4162   12.0828 S.2     1  UNL1       -0.0864
@<TRIPOS>BOND
     1    13    14    1
     2    14    15   ar
     3    15    16   ar
     4    16     1    1
     5     1     2   ar
     6     2     3   ar
     7     3     4   ar
     8     4     5   ar
     9     5     6    1
    10     6     7    1
    11     7     8    1
    12     8     9   am
    13     9    10    2
    14     9    19    1
    15    19    20   ar
    16    20    21   ar
    17    21    22   ar
    18    22    25    1
    19    25    26   ar
    20    26    27   ar
    21    27    28   ar
    22    28    29   ar
    23    22    23   ar
    24    23    24   ar
    25     8    11    1
    26    11    12    1
    27    16    17   ar
    28    17    18   ar
    29    18    14   ar
    30     5     1   ar
    31    24    19   ar
    32    11     4    1
    33    29    25   ar
