@<TRIPOS>MOLECULE
*****
 22 25 0 0 0
SMALL
GASTEIGER

@<TRIPOS>ATOM
      1 C          63.4080   85.5140   13.2780 C.ar    1  UNL1       -0.0003
      2 C          64.1731   86.0048   14.4712 C.ar    1  UNL1       -0.0003
      3 C          64.4423   87.4709   14.6383 C.ar    1  UNL1       -0.0043
      4 C          63.9465   88.4462   13.6122 C.ar    1  UNL1       -0.0224
      5 C          63.1814   87.9554   12.4190 C.ar    1  UNL1       -0.0258
      6 C          62.9122   86.4893   12.2519 C.ar    1  UNL1       -0.0046
      7 C          62.8205   89.1444   11.5787 C.3     1  UNL1        0.0267
      8 C          63.3626   90.3700   12.2525 C.3     1  UNL1        0.0134
      9 C          64.0585   89.9385   13.5093 C.3     1  UNL1        0.0447
     10 F          62.3311   79.6494   12.6093 F       1  UNL1       -0.2042
     11 C          62.6003   81.1155   12.7765 C.ar    1  UNL1        0.1401
     12 C          62.3804   81.7714   14.1074 C.ar    1  UNL1        0.0296
     13 C          62.6497   83.2376   14.2746 C.ar    1  UNL1        0.0023
     14 C          63.1388   84.0478   13.1108 C.ar    1  UNL1        0.0001
     15 C          63.3587   83.3918   11.7799 C.ar    1  UNL1        0.0023
     16 C          63.0895   81.9257   11.6127 C.ar    1  UNL1        0.0296
     17 C          64.7457   90.8409   14.4908 C.ar    1  UNL1       -0.0153
     18 C          66.1225   91.3588   14.1970 C.ar    1  UNL1        0.0167
     19 C          66.8096   92.2611   15.1786 C.ar    1  UNL1        0.0986
     20 N          66.1200   92.6456   16.4540 N.ar    1  UNL1       -0.2423
     21 C          64.7433   92.1277   16.7479 C.ar    1  UNL1        0.0986
     22 C          64.0562   91.2253   15.7663 C.ar    1  UNL1        0.0167
@<TRIPOS>BOND
     1    10    11    1
     2    11    12   ar
     3    12    13   ar
     4    13    14   ar
     5    14     1    1
     6     1     2   ar
     7     2     3   ar
     8     3     4   ar
     9     4     5   ar
    10     5     6   ar
    11     5     7    1
    12     7     8    1
    13     8     9    1
    14     9    17    1
    15    17    18   ar
    16    18    19   ar
    17    19    20   ar
    18    20    21   ar
    19    21    22   ar
    20    14    15   ar
    21    15    16   ar
    22    16    11   ar
    23     6     1   ar
    24    22    17   ar
    25     9     4    1
@<TRIPOS>MOLECULE
*****
 22 25 0 0 0
SMALL
GASTEIGER

@<TRIPOS>ATOM
      1 C          62.9597   85.0048   12.8489 C.ar    1  UNL1       -0.0003
      2 C          63.8210   85.7071   13.8562 C.ar    1  UNL1       -0.0003
      3 C          64.0417   87.1871   13.7522 C.ar    1  UNL1       -0.0043
      4 C          63.4012   87.9647   12.6409 C.ar    1  UNL1       -0.0224
      5 C          62.5398   87.2623   11.6336 C.ar    1  UNL1       -0.0258
      6 C          62.3191   85.7824   11.7376 C.ar    1  UNL1       -0.0046
      7 C          62.0432   88.2850   10.6550 C.3     1  UNL1        0.0267
      8 C          62.5976   89.6194   11.0576 C.3     1  UNL1        0.0134
      9 C          63.4368   89.4215   12.2849 C.3     1  UNL1        0.0447
     10 F          62.0765   79.0847   13.2648 F       1  UNL1       -0.2042
     11 C          62.2973   80.5646   13.1608 C.ar    1  UNL1        0.1401
     12 C          62.8178   81.1575   11.8850 C.ar    1  UNL1        0.0296
     13 C          63.0386   82.6376   11.7810 C.ar    1  UNL1        0.0023
     14 C          62.7389   83.5247   12.9528 C.ar    1  UNL1        0.0001
     15 C          62.2184   82.9318   14.2286 C.ar    1  UNL1        0.0023
     16 C          61.9977   81.4518   14.3326 C.ar    1  UNL1        0.0296
     17 C          64.1811   90.4923   13.0262 C.ar    1  UNL1       -0.0153
     18 C          64.6939   91.6952   12.2913 C.ar    1  UNL1        0.0167
     19 C          65.4381   92.7659   13.0326 C.ar    1  UNL1        0.0986
     20 N          65.6697   92.6338   14.5087 N.ar    1  UNL1       -0.2423
     21 C          65.1569   91.4309   15.2436 C.ar    1  UNL1        0.0986
     22 C          64.4126   90.3602   14.5023 C.ar    1  UNL1        0.0167
@<TRIPOS>BOND
     1    10    11    1
     2    11    12   ar
     3    12    13   ar
     4    13    14   ar
     5    14     1    1
     6     1     2   ar
     7     2     3   ar
     8     3     4   ar
     9     4     5   ar
    10     5     6   ar
    11     5     7    1
    12     7     8    1
    13     8     9    1
    14     9    17    1
    15    17    18   ar
    16    18    19   ar
    17    19    20   ar
    18    20    21   ar
    19    21    22   ar
    20    14    15   ar
    21    15    16   ar
    22    16    11   ar
    23     6     1   ar
    24    22    17   ar
    25     9     4    1
@<TRIPOS>MOLECULE
*****
 22 25 0 0 0
SMALL
GASTEIGER

@<TRIPOS>ATOM
      1 C          62.6680   89.7421   10.7419 C.ar    1  UNL1       -0.0003
      2 C          63.1396   89.3386   12.1075 C.ar    1  UNL1       -0.0003
      3 C          64.1562   90.1744   12.8271 C.ar    1  UNL1       -0.0043
      4 C          64.7013   91.4136   12.1811 C.ar    1  UNL1       -0.0224
      5 C          64.2297   91.8170   10.8156 C.ar    1  UNL1       -0.0258
      6 C          63.2131   90.9813   10.0960 C.ar    1  UNL1       -0.0046
      7 C          64.9416   93.0810   10.4340 C.3     1  UNL1        0.0267
      8 C          65.8531   93.4588   11.5638 C.3     1  UNL1        0.0134
      9 C          65.7046   92.4283   12.6436 C.3     1  UNL1        0.0447
     10 F          58.6013   86.3989    7.8634 F       1  UNL1       -0.2042
     11 C          59.6180   87.2347    8.5830 C.ar    1  UNL1        0.1401
     12 C          59.6145   88.7258    8.4194 C.ar    1  UNL1        0.0296
     13 C          60.6312   89.5616    9.1391 C.ar    1  UNL1        0.0023
     14 C          61.6513   88.9063   10.0223 C.ar    1  UNL1        0.0001
     15 C          61.6547   87.4152   10.1858 C.ar    1  UNL1        0.0023
     16 C          60.6381   86.5795    9.4662 C.ar    1  UNL1        0.0296
     17 C          66.4317   92.4148   13.9555 C.ar    1  UNL1       -0.0153
     18 C          65.6687   92.5700   15.2376 C.ar    1  UNL1        0.0167
     19 C          66.3959   92.5565   16.5494 C.ar    1  UNL1        0.0986
     20 N          67.8860   92.3878   16.5793 N.ar    1  UNL1       -0.2423
     21 C          68.6491   92.2325   15.2972 C.ar    1  UNL1        0.0986
     22 C          67.9219   92.2461   13.9854 C.ar    1  UNL1        0.0167
@<TRIPOS>BOND
     1    10    11    1
     2    11    12   ar
     3    12    13   ar
     4    13    14   ar
     5    14     1    1
     6     1     2   ar
     7     2     3   ar
     8     3     4   ar
     9     4     5   ar
    10     5     6   ar
    11     5     7    1
    12     7     8    1
    13     8     9    1
    14     9    17    1
    15    17    18   ar
    16    18    19   ar
    17    19    20   ar
    18    20    21   ar
    19    21    22   ar
    20    14    15   ar
    21    15    16   ar
    22    16    11   ar
    23     6     1   ar
    24    22    17   ar
    25     9     4    1
@<TRIPOS>MOLECULE
*****
 22 25 0 0 0
SMALL
GASTEIGER

@<TRIPOS>ATOM
      1 C          63.9255   88.1858   13.9492 C.ar    1  UNL1       -0.0003
      2 C          64.1844   86.8685   14.6183 C.ar    1  UNL1       -0.0003
      3 C          63.7837   85.5917   13.9408 C.ar    1  UNL1       -0.0043
      4 C          63.1241   85.6321   12.5942 C.ar    1  UNL1       -0.0224
      5 C          62.8652   86.9494   11.9252 C.ar    1  UNL1       -0.0258
      6 C          63.2659   88.2262   12.6026 C.ar    1  UNL1       -0.0046
      7 C          62.2029   86.6775   10.6070 C.3     1  UNL1        0.0267
      8 C          62.0526   85.1921   10.4614 C.3     1  UNL1        0.0134
      9 C          62.6218   84.5460   11.6896 C.3     1  UNL1        0.0447
     10 F          65.5283   93.2934   16.6592 F       1  UNL1       -0.2042
     11 C          65.1276   92.0166   15.9817 C.ar    1  UNL1        0.1401
     12 C          65.8774   91.5419   14.7723 C.ar    1  UNL1        0.0296
     13 C          65.4767   90.2649   14.0948 C.ar    1  UNL1        0.0023
     14 C          64.3262   89.4627   14.6267 C.ar    1  UNL1        0.0001
     15 C          63.5764   89.9374   15.8361 C.ar    1  UNL1        0.0023
     16 C          63.9771   91.2143   16.5136 C.ar    1  UNL1        0.0296
     17 C          62.6789   83.0726   11.9648 C.ar    1  UNL1       -0.0153
     18 C          63.1017   82.1234   10.8831 C.ar    1  UNL1        0.0167
     19 C          63.1587   80.6500   11.1584 C.ar    1  UNL1        0.0986
     20 N          62.7930   80.1258   12.5154 N.ar    1  UNL1       -0.2423
     21 C          62.3703   81.0751   13.5972 C.ar    1  UNL1        0.0986
     22 C          62.3132   82.5484   13.3218 C.ar    1  UNL1        0.0167
@<TRIPOS>BOND
     1    10    11    1
     2    11    12   ar
     3    12    13   ar
     4    13    14   ar
     5    14     1    1
     6     1     2   ar
     7     2     3   ar
     8     3     4   ar
     9     4     5   ar
    10     5     6   ar
    11     5     7    1
    12     7     8    1
    13     8     9    1
    14     9    17    1
    15    17    18   ar
    16    18    19   ar
    17    19    20   ar
    18    20    21   ar
    19    21    22   ar
    20    14    15   ar
    21    15    16   ar
    22    16    11   ar
    23     6     1   ar
    24    22    17   ar
    25     9     4    1
@<TRIPOS>MOLECULE
*****
 22 25 0 0 0
SMALL
GASTEIGER

@<TRIPOS>ATOM
      1 C          64.2565   89.1604   13.3498 C.ar    1  UNL1       -0.0003
      2 C          64.5791   88.0041   14.2491 C.ar    1  UNL1       -0.0003
      3 C          64.0055   86.6482   13.9622 C.ar    1  UNL1       -0.0043
      4 C          63.1093   86.4485   12.7761 C.ar    1  UNL1       -0.0224
      5 C          62.7866   87.6049   11.8768 C.ar    1  UNL1       -0.0258
      6 C          63.3603   88.9608   12.1636 C.ar    1  UNL1       -0.0046
      7 C          61.8799   87.1080   10.7901 C.3     1  UNL1        0.0267
      8 C          61.6421   85.6446   11.0178 C.3     1  UNL1        0.0134
      9 C          62.4019   85.2370   12.2452 C.3     1  UNL1        0.0447
     10 F          66.5509   94.5844   14.4971 F       1  UNL1       -0.2042
     11 C          65.9773   93.2285   14.2103 C.ar    1  UNL1        0.1401
     12 C          65.6115   92.8507   12.8055 C.ar    1  UNL1        0.0296
     13 C          65.0379   91.4947   12.5187 C.ar    1  UNL1        0.0023
     14 C          64.8301   90.5165   13.6366 C.ar    1  UNL1        0.0001
     15 C          65.1959   90.8942   15.0414 C.ar    1  UNL1        0.0023
     16 C          65.7695   92.2502   15.3283 C.ar    1  UNL1        0.0296
     17 C          62.4465   83.8597   12.8377 C.ar    1  UNL1       -0.0153
     18 C          62.2491   83.6710   14.3127 C.ar    1  UNL1        0.0167
     19 C          62.2938   82.2937   14.9051 C.ar    1  UNL1        0.0986
     20 N          62.5357   81.1051   14.0227 N.ar    1  UNL1       -0.2423
     21 C          62.7330   81.2938   12.5477 C.ar    1  UNL1        0.0986
     22 C          62.6884   82.6711   11.9553 C.ar    1  UNL1        0.0167
@<TRIPOS>BOND
     1    10    11    1
     2    11    12   ar
     3    12    13   ar
     4    13    14   ar
     5    14     1    1
     6     1     2   ar
     7     2     3   ar
     8     3     4   ar
     9     4     5   ar
    10     5     6   ar
    11     5     7    1
    12     7     8    1
    13     8     9    1
    14     9    17    1
    15    17    18   ar
    16    18    19   ar
    17    19    20   ar
    18    20    21   ar
    19    21    22   ar
    20    14    15   ar
    21    15    16   ar
    22    16    11   ar
    23     6     1   ar
    24    22    17   ar
    25     9     4    1
