@<TRIPOS>MOLECULE
*****
 30 34 0 0 0
SMALL
GASTEIGER

@<TRIPOS>ATOM
      1 C          64.4163   89.3153   14.2137 C.3     1  UNL1        0.0181
      2 C          63.8652   88.1371   13.4666 C.3     1  UNL1        0.0036
      3 C          63.3951   86.7993   12.9773 C.3     1  UNL1        0.0227
      4 C          63.6666   85.7904   14.0534 C.3     1  UNL1        0.0870
      5 C          64.3046   86.5045   15.2080 C.3     1  UNL1        0.0227
      6 C          64.4274   87.9548   14.8453 C.3     1  UNL1        0.0036
      7 N          63.3548   84.3246   13.9868 N.ar    1  UNL1       -0.3109
      8 C          62.9545   83.4550   15.1416 C.ar    1  UNL1        0.1785
      9 N          62.7410   82.0641   14.6222 N.ar    1  UNL1       -0.2239
     10 C          63.0093   82.0741   13.1464 C.ar    1  UNL1        0.1010
     11 C          62.9571   80.9916   12.1094 C.ar    1  UNL1        0.0502
     12 C          63.2844   81.3062   10.6798 C.ar    1  UNL1        0.1417
     13 F          63.2322   80.2236    9.6427 F       1  UNL1       -0.2041
     14 C          63.6638   82.7033   10.2871 C.ar    1  UNL1        0.0312
     15 C          63.7159   83.7858   11.3241 C.ar    1  UNL1        0.0211
     16 C          63.3887   83.4712   12.7537 C.ar    1  UNL1        0.0790
     17 C          64.7280   90.7810   14.2803 C.3     1  UNL1        0.0718
     18 N          65.0178   91.5441   13.0219 N.am    1  UNL1       -0.3025
     19 C          66.3731   92.1501   12.8075 C.2     1  UNL1        0.2458
     20 O          67.4386   91.9931   13.8516 O.2     1  UNL1       -0.2701
     21 H          64.3185   91.6472   12.3366 H       1  UNL1        0.1497
     22 C          66.6629   92.9133   11.5490 C.ar    1  UNL1        0.0534
     23 C          67.5863   92.3360   10.5177 C.ar    1  UNL1        0.0054
     24 C          67.8761   93.0991    9.2592 C.ar    1  UNL1        0.0115
     25 C          67.2425   94.4396    9.0322 C.ar    1  UNL1        0.0577
     26 CL         67.5323   95.2027    7.7738 Cl      1  UNL1       -0.0822
     27 C          66.3190   95.0170   10.0637 C.ar    1  UNL1        0.0115
     28 C          66.0292   94.2539   11.3221 C.ar    1  UNL1        0.0054
     29 C          63.7130   91.1643   16.6410 C.3     1  UNL1        0.0017
     30 C          64.7500   91.4837   15.6054 C.3     1  UNL1        0.0196
@<TRIPOS>BOND
     1    29    30    1
     2    30    17    1
     3    17    18    1
     4    18    19   am
     5    19    20    2
     6    19    22    1
     7    22    23   ar
     8    23    24   ar
     9    24    25   ar
    10    25    26    1
    11    25    27   ar
    12    27    28   ar
    13     1    17    1
    14     1     2    1
    15     2     3    1
    16     3     4    1
    17     4     7    1
    18     7     8   ar
    19     8     9   ar
    20     9    10   ar
    21    10    11   ar
    22    11    12   ar
    23    12    13    1
    24    12    14   ar
    25    14    15   ar
    26    15    16   ar
    27     4     5    1
    28     6     5    1
    29    28    22   ar
    30     6     1    1
    31     6     2    1
    32    16     7   ar
    33    16    10   ar
    34    18    21    1
@<TRIPOS>MOLECULE
*****
 30 34 0 0 0
SMALL
GASTEIGER

@<TRIPOS>ATOM
      1 C          62.0318   88.4008   11.0457 C.3     1  UNL1        0.0181
      2 C          62.9209   89.1375   12.0033 C.3     1  UNL1        0.0036
      3 C          63.8413   90.0775   12.7239 C.3     1  UNL1        0.0227
      4 C          64.1766   91.2037   11.7918 C.3     1  UNL1        0.0870
      5 C          63.4635   90.9599   10.4948 C.3     1  UNL1        0.0227
      6 C          62.6875   89.6829   10.6255 C.3     1  UNL1        0.0036
      7 N          65.0684   92.3693   12.1019 N.ar    1  UNL1       -0.3109
      8 C          65.3227   93.5471   11.2086 C.ar    1  UNL1        0.1785
      9 N          66.2740   94.4673   11.9145 N.ar    1  UNL1       -0.2239
     10 C          66.6077   93.8582   13.2441 C.ar    1  UNL1        0.1010
     11 C          67.4937   94.3167   14.3642 C.ar    1  UNL1        0.0502
     12 C          67.6346   93.4786   15.6001 C.ar    1  UNL1        0.1417
     13 F          68.5206   93.9371   16.7203 F       1  UNL1       -0.2041
     14 C          66.8895   92.1819   15.7159 C.ar    1  UNL1        0.0312
     15 C          66.0035   91.7233   14.5958 C.ar    1  UNL1        0.0211
     16 C          65.8626   92.5615   13.3599 C.ar    1  UNL1        0.0790
     17 C          61.1400   87.2354   10.7355 C.3     1  UNL1        0.0718
     18 N          61.3169   85.9393   11.4696 N.am    1  UNL1       -0.3025
     19 C          62.3276   84.9390   10.9924 C.2     1  UNL1        0.2458
     20 O          63.1614   85.2346    9.7811 O.2     1  UNL1       -0.2701
     21 H          60.7696   85.7453   12.2647 H       1  UNL1        0.1497
     22 C          62.5045   83.6429   11.7266 C.ar    1  UNL1        0.0534
     23 C          62.7937   82.3832   10.9655 C.ar    1  UNL1        0.0054
     24 C          62.9706   81.0871   11.6996 C.ar    1  UNL1        0.0115
     25 C          62.8583   81.0508   13.1949 C.ar    1  UNL1        0.0577
     26 CL         63.0352   79.7548   13.9290 Cl      1  UNL1       -0.0822
     27 C          62.5691   82.3105   13.9561 C.ar    1  UNL1        0.0115
     28 C          62.3922   83.6066   13.2220 C.ar    1  UNL1        0.0054
     29 C          60.1707   86.5850    8.4144 C.3     1  UNL1        0.0017
     30 C          60.0712   87.3659    9.6911 C.3     1  UNL1        0.0196
@<TRIPOS>BOND
     1    29    30    1
     2    30    17    1
     3    17    18    1
     4    18    19   am
     5    19    20    2
     6    19    22    1
     7    22    23   ar
     8    23    24   ar
     9    24    25   ar
    10    25    26    1
    11    25    27   ar
    12    27    28   ar
    13     1    17    1
    14     1     2    1
    15     2     3    1
    16     3     4    1
    17     4     7    1
    18     7     8   ar
    19     8     9   ar
    20     9    10   ar
    21    10    11   ar
    22    11    12   ar
    23    12    13    1
    24    12    14   ar
    25    14    15   ar
    26    15    16   ar
    27     4     5    1
    28     6     5    1
    29    28    22   ar
    30     6     1    1
    31     6     2    1
    32    16     7   ar
    33    16    10   ar
    34    18    21    1
@<TRIPOS>MOLECULE
*****
 30 34 0 0 0
SMALL
GASTEIGER

@<TRIPOS>ATOM
      1 C          63.4124   87.5047   15.7176 C.3     1  UNL1        0.0181
      2 C          64.3211   88.2977   14.8256 C.3     1  UNL1        0.0036
      3 C          65.1382   89.3328   14.1108 C.3     1  UNL1        0.0227
      4 C          64.8902   90.6565   14.7712 C.3     1  UNL1        0.0870
      5 C          63.9198   90.4396   15.8942 C.3     1  UNL1        0.0227
      6 C          63.5681   88.9818   15.9279 C.3     1  UNL1        0.0036
      7 N          65.5047   91.9670   14.3776 N.ar    1  UNL1       -0.3109
      8 C          66.2117   92.9201   15.2951 C.ar    1  UNL1        0.1785
      9 N          66.6640   94.0967   14.4820 N.ar    1  UNL1       -0.2239
     10 C          66.2365   93.8708   13.0621 C.ar    1  UNL1        0.1010
     11 C          66.4071   94.6935   11.8195 C.ar    1  UNL1        0.0502
     12 C          65.8612   94.2000   10.5125 C.ar    1  UNL1        0.1417
     13 F          66.0317   95.0228    9.2699 F       1  UNL1       -0.2041
     14 C          65.1447   92.8838   10.4480 C.ar    1  UNL1        0.0312
     15 C          64.9741   92.0611   11.6905 C.ar    1  UNL1        0.0211
     16 C          65.5200   92.5545   12.9976 C.ar    1  UNL1        0.0790
     17 C          62.7980   86.1943   16.1111 C.3     1  UNL1        0.0718
     18 N          62.5890   85.1244   15.0808 N.am    1  UNL1       -0.3025
     19 C          63.7641   84.5525   14.3445 C.2     1  UNL1        0.2458
     20 O          65.1481   85.0504   14.6385 O.2     1  UNL1       -0.2701
     21 H          61.6806   84.7975   14.8878 H       1  UNL1        0.1497
     22 C          63.5551   83.4825   13.3140 C.ar    1  UNL1        0.0534
     23 C          64.2624   83.5642   11.9939 C.ar    1  UNL1        0.0054
     24 C          64.0535   82.4944   10.9635 C.ar    1  UNL1        0.0115
     25 C          63.1371   81.3428   11.2534 C.ar    1  UNL1        0.0577
     26 CL         62.9281   80.2729   10.2230 Cl      1  UNL1       -0.0822
     27 C          62.4297   81.2610   12.5735 C.ar    1  UNL1        0.0115
     28 C          62.6386   82.3309   13.6039 C.ar    1  UNL1        0.0054
     29 C          62.7324   86.9616   18.5925 C.3     1  UNL1        0.0017
     30 C          62.3924   85.9535   17.5351 C.3     1  UNL1        0.0196
@<TRIPOS>BOND
     1    29    30    1
     2    30    17    1
     3    17    18    1
     4    18    19   am
     5    19    20    2
     6    19    22    1
     7    22    23   ar
     8    23    24   ar
     9    24    25   ar
    10    25    26    1
    11    25    27   ar
    12    27    28   ar
    13     1    17    1
    14     1     2    1
    15     2     3    1
    16     3     4    1
    17     4     7    1
    18     7     8   ar
    19     8     9   ar
    20     9    10   ar
    21    10    11   ar
    22    11    12   ar
    23    12    13    1
    24    12    14   ar
    25    14    15   ar
    26    15    16   ar
    27     4     5    1
    28     6     5    1
    29    28    22   ar
    30     6     1    1
    31     6     2    1
    32    16     7   ar
    33    16    10   ar
    34    18    21    1
@<TRIPOS>MOLECULE
*****
 30 34 0 0 0
SMALL
GASTEIGER

@<TRIPOS>ATOM
      1 C          63.1508   88.5026   12.2223 C.3     1  UNL1        0.0181
      2 C          63.5034   87.3203   13.0756 C.3     1  UNL1        0.0036
      3 C          63.6603   85.9838   13.7382 C.3     1  UNL1        0.0227
      4 C          62.7989   84.9988   13.0050 C.3     1  UNL1        0.0870
      5 C          62.1095   85.7265   11.8891 C.3     1  UNL1        0.0227
      6 C          62.5449   87.1613   11.9327 C.3     1  UNL1        0.0036
      7 N          62.6526   83.5418   13.3304 N.ar    1  UNL1       -0.3109
      8 C          62.3423   82.9668   14.6806 C.ar    1  UNL1        0.1785
      9 N          62.2888   81.4737   14.5473 N.ar    1  UNL1       -0.2239
     10 C          62.5660   81.1259   13.1148 C.ar    1  UNL1        0.1010
     11 C          62.6427   79.8105   12.3980 C.ar    1  UNL1        0.0502
     12 C          62.9443   79.7733   10.9292 C.ar    1  UNL1        0.1417
     13 F          63.0210   78.4578   10.2123 F       1  UNL1       -0.2041
     14 C          63.1691   81.0515   10.1770 C.ar    1  UNL1        0.0312
     15 C          63.0924   82.3669   10.8938 C.ar    1  UNL1        0.0211
     16 C          62.7908   82.4041   12.3626 C.ar    1  UNL1        0.0790
     17 C          63.2971   89.9595   11.8969 C.3     1  UNL1        0.0718
     18 N          64.4670   90.7330   12.4288 N.am    1  UNL1       -0.3025
     19 C          64.6956   90.8242   13.9085 C.2     1  UNL1        0.2458
     20 O          63.7542   90.1420   14.8562 O.2     1  UNL1       -0.2701
     21 H          65.0849   91.1808   11.8067 H       1  UNL1        0.1497
     22 C          65.8656   91.5978   14.4404 C.ar    1  UNL1        0.0534
     23 C          67.1190   91.7169   13.6252 C.ar    1  UNL1        0.0054
     24 C          68.2889   92.4904   14.1571 C.ar    1  UNL1        0.0115
     25 C          68.2054   93.1448   15.5042 C.ar    1  UNL1        0.0577
     26 CL         69.3753   93.9183   16.0361 Cl      1  UNL1       -0.0822
     27 C          66.9519   93.0257   16.3195 C.ar    1  UNL1        0.0115
     28 C          65.7820   92.2522   15.7876 C.ar    1  UNL1        0.0054
     29 C          60.8243   90.2773   11.1659 C.3     1  UNL1        0.0017
     30 C          62.2735   90.6430   11.0395 C.3     1  UNL1        0.0196
@<TRIPOS>BOND
     1    29    30    1
     2    30    17    1
     3    17    18    1
     4    18    19   am
     5    19    20    2
     6    19    22    1
     7    22    23   ar
     8    23    24   ar
     9    24    25   ar
    10    25    26    1
    11    25    27   ar
    12    27    28   ar
    13     1    17    1
    14     1     2    1
    15     2     3    1
    16     3     4    1
    17     4     7    1
    18     7     8   ar
    19     8     9   ar
    20     9    10   ar
    21    10    11   ar
    22    11    12   ar
    23    12    13    1
    24    12    14   ar
    25    14    15   ar
    26    15    16   ar
    27     4     5    1
    28     6     5    1
    29    28    22   ar
    30     6     1    1
    31     6     2    1
    32    16     7   ar
    33    16    10   ar
    34    18    21    1
@<TRIPOS>MOLECULE
*****
 30 34 0 0 0
SMALL
GASTEIGER

@<TRIPOS>ATOM
      1 C          63.8319   88.7641   13.8796 C.3     1  UNL1        0.0181
      2 C          64.1759   87.3115   14.0275 C.3     1  UNL1        0.0036
      3 C          64.3604   85.8278   13.9071 C.3     1  UNL1        0.0227
      4 C          63.6700   85.3748   12.6549 C.3     1  UNL1        0.0870
      5 C          63.0587   86.5786   12.0013 C.3     1  UNL1        0.0227
      6 C          63.3713   87.7755   12.8496 C.3     1  UNL1        0.0036
      7 N          63.6027   83.9655   12.1457 N.ar    1  UNL1       -0.3109
      8 C          64.2392   83.4510   10.8886 C.ar    1  UNL1        0.1785
      9 N          63.9169   81.9908   10.7701 N.ar    1  UNL1       -0.2239
     10 C          63.0812   81.6029   11.9539 C.ar    1  UNL1        0.1010
     11 C          62.4720   80.2961   12.3675 C.ar    1  UNL1        0.0502
     12 C          61.6687   80.2098   13.6313 C.ar    1  UNL1        0.1417
     13 F          61.0595   78.9030   14.0450 F       1  UNL1       -0.2041
     14 C          61.4745   81.4303   14.4814 C.ar    1  UNL1        0.0312
     15 C          62.0837   82.7371   14.0678 C.ar    1  UNL1        0.0211
     16 C          62.8870   82.8234   12.8040 C.ar    1  UNL1        0.0790
     17 C          63.8992   90.1733   14.3888 C.3     1  UNL1        0.0718
     18 N          64.2211   91.2963   13.4479 N.am    1  UNL1       -0.3025
     19 C          65.6320   91.7903   13.3246 C.2     1  UNL1        0.2458
     20 O          66.7210   91.1614   14.1423 O.2     1  UNL1       -0.2701
     21 H          63.5064   91.7090   12.9112 H       1  UNL1        0.1497
     22 C          65.9540   92.9133   12.3836 C.ar    1  UNL1        0.0534
     23 C          66.1640   94.3001   12.9150 C.ar    1  UNL1        0.0054
     24 C          66.4860   95.4231   11.9740 C.ar    1  UNL1        0.0115
     25 C          66.5978   95.1591   10.5017 C.ar    1  UNL1        0.0577
     26 CL         66.9197   96.2820    9.5608 Cl      1  UNL1       -0.0822
     27 C          66.3878   93.7722    9.9703 C.ar    1  UNL1        0.0115
     28 C          66.0658   92.6493   10.9112 C.ar    1  UNL1        0.0054
     29 C          63.0533   89.3998   16.7204 C.3     1  UNL1        0.0017
     30 C          63.6445   90.4598   15.8391 C.3     1  UNL1        0.0196
@<TRIPOS>BOND
     1    29    30    1
     2    30    17    1
     3    17    18    1
     4    18    19   am
     5    19    20    2
     6    19    22    1
     7    22    23   ar
     8    23    24   ar
     9    24    25   ar
    10    25    26    1
    11    25    27   ar
    12    27    28   ar
    13     1    17    1
    14     1     2    1
    15     2     3    1
    16     3     4    1
    17     4     7    1
    18     7     8   ar
    19     8     9   ar
    20     9    10   ar
    21    10    11   ar
    22    11    12   ar
    23    12    13    1
    24    12    14   ar
    25    14    15   ar
    26    15    16   ar
    27     4     5    1
    28     6     5    1
    29    28    22   ar
    30     6     1    1
    31     6     2    1
    32    16     7   ar
    33    16    10   ar
    34    18    21    1
@<TRIPOS>MOLECULE
*****
 30 34 0 0 0
SMALL
GASTEIGER

@<TRIPOS>ATOM
      1 C          62.1573   88.3230   11.2042 C.3     1  UNL1        0.0181
      2 C          62.6808   89.6925   10.8874 C.3     1  UNL1        0.0036
      3 C          63.3492   91.0348   10.8475 C.3     1  UNL1        0.0227
      4 C          64.1515   91.1908   12.1052 C.3     1  UNL1        0.0870
      5 C          63.9790   89.9449   12.9225 C.3     1  UNL1        0.0227
      6 C          63.0701   89.0189   12.1699 C.3     1  UNL1        0.0036
      7 N          64.9808   92.3833   12.4799 N.ar    1  UNL1       -0.3109
      8 C          65.3996   92.7646   13.8688 C.ar    1  UNL1        0.1785
      9 N          66.2145   94.0207   13.7787 N.ar    1  UNL1       -0.2239
     10 C          66.2991   94.4158   12.3341 C.ar    1  UNL1        0.1010
     11 C          66.9720   95.5662   11.6460 C.ar    1  UNL1        0.0502
     12 C          66.8825   95.7046   10.1551 C.ar    1  UNL1        0.1417
     13 F          67.5554   96.8552    9.4669 F       1  UNL1       -0.2041
     14 C          66.1200   94.6926    9.3524 C.ar    1  UNL1        0.0312
     15 C          65.4471   93.5421   10.0405 C.ar    1  UNL1        0.0211
     16 C          65.5367   93.4037   11.5314 C.ar    1  UNL1        0.0790
     17 C          61.3281   87.1305   10.8296 C.3     1  UNL1        0.0718
     18 N          61.4844   85.8421   11.5816 N.am    1  UNL1       -0.3025
     19 C          62.4199   84.7856   11.0730 C.2     1  UNL1        0.2458
     20 O          63.1991   85.0175    9.8124 O.2     1  UNL1       -0.2701
     21 H          60.9730   85.6899   12.4089 H       1  UNL1        0.1497
     22 C          62.5762   83.4971   11.8251 C.ar    1  UNL1        0.0534
     23 C          62.4653   83.4836   13.3208 C.ar    1  UNL1        0.0054
     24 C          62.6216   82.1952   14.0729 C.ar    1  UNL1        0.0115
     25 C          62.8888   80.9203   13.3291 C.ar    1  UNL1        0.0577
     26 CL         63.0451   79.6319   14.0811 Cl      1  UNL1       -0.0822
     27 C          62.9998   80.9338   11.8332 C.ar    1  UNL1        0.0115
     28 C          62.8435   82.2222   11.0812 C.ar    1  UNL1        0.0054
     29 C          60.7904   86.9844    8.2919 C.3     1  UNL1        0.0017
     30 C          60.3425   87.2264    9.7028 C.3     1  UNL1        0.0196
@<TRIPOS>BOND
     1    29    30    1
     2    30    17    1
     3    17    18    1
     4    18    19   am
     5    19    20    2
     6    19    22    1
     7    22    23   ar
     8    23    24   ar
     9    24    25   ar
    10    25    26    1
    11    25    27   ar
    12    27    28   ar
    13     1    17    1
    14     1     2    1
    15     2     3    1
    16     3     4    1
    17     4     7    1
    18     7     8   ar
    19     8     9   ar
    20     9    10   ar
    21    10    11   ar
    22    11    12   ar
    23    12    13    1
    24    12    14   ar
    25    14    15   ar
    26    15    16   ar
    27     4     5    1
    28     6     5    1
    29    28    22   ar
    30     6     1    1
    31     6     2    1
    32    16     7   ar
    33    16    10   ar
    34    18    21    1
@<TRIPOS>MOLECULE
*****
 30 34 0 0 0
SMALL
GASTEIGER

@<TRIPOS>ATOM
      1 C          62.4238   88.6293   11.7250 C.3     1  UNL1        0.0181
      2 C          62.9039   87.3080   12.2483 C.3     1  UNL1        0.0036
      3 C          63.2841   85.8780   12.4947 C.3     1  UNL1        0.0227
      4 C          62.9073   85.0823   11.2803 C.3     1  UNL1        0.0870
      5 C          62.2942   86.0203   10.2833 C.3     1  UNL1        0.0227
      6 C          62.2920   87.3959   10.8815 C.3     1  UNL1        0.0036
      7 N          63.1084   83.6073   11.0954 N.ar    1  UNL1       -0.3109
      8 C          63.7573   82.9471    9.9152 C.ar    1  UNL1        0.1785
      9 N          63.7457   81.4654   10.1486 N.ar    1  UNL1       -0.2239
     10 C          63.0897   81.2099   11.4731 C.ar    1  UNL1        0.1010
     11 C          62.8001   79.9429   12.2219 C.ar    1  UNL1        0.0502
     12 C          62.1166   79.9997   13.5559 C.ar    1  UNL1        0.1417
     13 F          61.8269   78.7326   14.3048 F       1  UNL1       -0.2041
     14 C          61.7226   81.3235   14.1410 C.ar    1  UNL1        0.0312
     15 C          62.0122   82.5905   13.3922 C.ar    1  UNL1        0.0211
     16 C          62.6957   82.5337   12.0583 C.ar    1  UNL1        0.0790
     17 C          62.2228   90.1041   11.9099 C.3     1  UNL1        0.0718
     18 N          63.3450   90.9552   12.4259 N.am    1  UNL1       -0.3025
     19 C          63.9552   90.6611   13.7643 C.2     1  UNL1        0.2458
     20 O          63.4431   89.5159   14.5867 O.2     1  UNL1       -0.2701
     21 H          63.6811   91.7068   11.8861 H       1  UNL1        0.1497
     22 C          65.0775   91.5122   14.2802 C.ar    1  UNL1        0.0534
     23 C          66.1209   92.0309   13.3357 C.ar    1  UNL1        0.0054
     24 C          67.2431   92.8819   13.8516 C.ar    1  UNL1        0.0115
     25 C          67.3220   93.2144   15.3121 C.ar    1  UNL1        0.0577
     26 CL         68.4442   94.0655   15.8281 Cl      1  UNL1       -0.0822
     27 C          66.2786   92.6957   16.2568 C.ar    1  UNL1        0.0115
     28 C          65.1563   91.8447   15.7409 C.ar    1  UNL1        0.0054
     29 C          59.6439   89.9114   11.6600 C.3     1  UNL1        0.0017
     30 C          60.8994   90.7281   11.5789 C.3     1  UNL1        0.0196
@<TRIPOS>BOND
     1    29    30    1
     2    30    17    1
     3    17    18    1
     4    18    19   am
     5    19    20    2
     6    19    22    1
     7    22    23   ar
     8    23    24   ar
     9    24    25   ar
    10    25    26    1
    11    25    27   ar
    12    27    28   ar
    13     1    17    1
    14     1     2    1
    15     2     3    1
    16     3     4    1
    17     4     7    1
    18     7     8   ar
    19     8     9   ar
    20     9    10   ar
    21    10    11   ar
    22    11    12   ar
    23    12    13    1
    24    12    14   ar
    25    14    15   ar
    26    15    16   ar
    27     4     5    1
    28     6     5    1
    29    28    22   ar
    30     6     1    1
    31     6     2    1
    32    16     7   ar
    33    16    10   ar
    34    18    21    1
@<TRIPOS>MOLECULE
*****
 30 34 0 0 0
SMALL
GASTEIGER

@<TRIPOS>ATOM
      1 C          59.0461   90.2400    5.9721 C.3     1  UNL1        0.0181
      2 C          59.2020   88.8885    6.6040 C.3     1  UNL1        0.0036
      3 C          59.5169   87.6946    7.4558 C.3     1  UNL1        0.0227
      4 C          60.3102   88.1651    8.6386 C.3     1  UNL1        0.0870
      5 C          60.4856   89.6500    8.5181 C.3     1  UNL1        0.0227
      6 C          59.8007   90.0970    7.2606 C.3     1  UNL1        0.0036
      7 N          60.8358   87.3024    9.7474 N.ar    1  UNL1       -0.3109
      8 C          60.4929   87.4302   11.2021 C.ar    1  UNL1        0.1785
      9 N          61.2418   86.3672   11.9499 N.ar    1  UNL1       -0.2239
     10 C          62.0476   85.5825   10.9574 C.ar    1  UNL1        0.1010
     11 C          62.9773   84.4164   11.1173 C.ar    1  UNL1        0.0502
     12 C          63.6562   83.8283    9.9159 C.ar    1  UNL1        0.1417
     13 F          64.5860   82.6620   10.0758 F       1  UNL1       -0.2041
     14 C          63.4052   84.4063    8.5547 C.ar    1  UNL1        0.0312
     15 C          62.4755   85.5724    8.3948 C.ar    1  UNL1        0.0211
     16 C          61.7966   86.1605    9.5962 C.ar    1  UNL1        0.0790
     17 C          58.5205   91.1027    4.8634 C.3     1  UNL1        0.0718
     18 N          59.4068   91.4612    3.7075 N.am    1  UNL1       -0.3025
     19 C          59.8812   92.8739    3.5362 C.2     1  UNL1        0.2458
     20 O          59.4693   93.9280    4.5207 O.2     1  UNL1       -0.2701
     21 H          59.6771   90.7694    3.0614 H       1  UNL1        0.1497
     22 C          60.7676   93.2324    2.3803 C.ar    1  UNL1        0.0534
     23 C          62.1649   92.6917    2.3108 C.ar    1  UNL1        0.0054
     24 C          63.0512   93.0503    1.1550 C.ar    1  UNL1        0.0115
     25 C          62.5401   93.9496    0.0687 C.ar    1  UNL1        0.0577
     26 CL         63.4264   94.3081   -1.0871 Cl      1  UNL1       -0.0822
     27 C          61.1427   94.4903    0.1382 C.ar    1  UNL1        0.0115
     28 C          60.2564   94.1318    1.2940 C.ar    1  UNL1        0.0054
     29 C          56.0076   90.7102    5.3938 C.3     1  UNL1        0.0017
     30 C          57.1085   91.6069    4.9103 C.3     1  UNL1        0.0196
@<TRIPOS>BOND
     1    29    30    1
     2    30    17    1
     3    17    18    1
     4    18    19   am
     5    19    20    2
     6    19    22    1
     7    22    23   ar
     8    23    24   ar
     9    24    25   ar
    10    25    26    1
    11    25    27   ar
    12    27    28   ar
    13     1    17    1
    14     1     2    1
    15     2     3    1
    16     3     4    1
    17     4     7    1
    18     7     8   ar
    19     8     9   ar
    20     9    10   ar
    21    10    11   ar
    22    11    12   ar
    23    12    13    1
    24    12    14   ar
    25    14    15   ar
    26    15    16   ar
    27     4     5    1
    28     6     5    1
    29    28    22   ar
    30     6     1    1
    31     6     2    1
    32    16     7   ar
    33    16    10   ar
    34    18    21    1
@<TRIPOS>MOLECULE
*****
 30 34 0 0 0
SMALL
GASTEIGER

@<TRIPOS>ATOM
      1 C          64.1463   88.2641   14.4314 C.3     1  UNL1        0.0181
      2 C          63.7705   87.1099   13.5501 C.3     1  UNL1        0.0036
      3 C          63.4038   85.7915   12.9358 C.3     1  UNL1        0.0227
      4 C          63.3693   84.7645   14.0285 C.3     1  UNL1        0.0870
      5 C          63.7145   85.4482   15.3182 C.3     1  UNL1        0.0227
      6 C          63.9625   86.8977   15.0225 C.3     1  UNL1        0.0036
      7 N          63.0462   83.3093   13.8610 N.ar    1  UNL1       -0.3109
      8 C          62.5569   82.3853   14.9366 C.ar    1  UNL1        0.1785
      9 N          62.3640   81.0276   14.3288 N.ar    1  UNL1       -0.2239
     10 C          62.7340   81.1125   12.8776 C.ar    1  UNL1        0.1010
     11 C          62.7415   80.0879   11.7822 C.ar    1  UNL1        0.0502
     12 C          63.1706   80.4735   10.3976 C.ar    1  UNL1        0.1417
     13 F          63.1780   79.4489    9.3020 F       1  UNL1       -0.2041
     14 C          63.5922   81.8837   10.1085 C.ar    1  UNL1        0.0312
     15 C          63.5847   82.9083   11.2039 C.ar    1  UNL1        0.0211
     16 C          63.1556   82.5227   12.5885 C.ar    1  UNL1        0.0790
     17 C          64.4694   89.7192   14.5990 C.3     1  UNL1        0.0718
     18 N          65.3459   90.4128   13.5987 N.am    1  UNL1       -0.3025
     19 C          64.8110   91.5695   12.8074 C.2     1  UNL1        0.2458
     20 O          63.3996   92.0325   13.0164 O.2     1  UNL1       -0.2701
     21 H          66.2722   90.1090   13.4615 H       1  UNL1        0.1497
     22 C          65.6875   92.2632   11.8071 C.ar    1  UNL1        0.0534
     23 C          67.1797   92.1956   11.9431 C.ar    1  UNL1        0.0054
     24 C          68.0563   92.8892   10.9428 C.ar    1  UNL1        0.0115
     25 C          67.4405   93.6505    9.8065 C.ar    1  UNL1        0.0577
     26 CL         68.3170   94.3442    8.8062 Cl      1  UNL1       -0.0822
     27 C          65.9482   93.7181    9.6704 C.ar    1  UNL1        0.0115
     28 C          65.0717   93.0245   10.6707 C.ar    1  UNL1        0.0054
     29 C          63.2107   89.7515   16.8715 C.3     1  UNL1        0.0017
     30 C          63.9160   90.4808   15.7668 C.3     1  UNL1        0.0196
@<TRIPOS>BOND
     1    29    30    1
     2    30    17    1
     3    17    18    1
     4    18    19   am
     5    19    20    2
     6    19    22    1
     7    22    23   ar
     8    23    24   ar
     9    24    25   ar
    10    25    26    1
    11    25    27   ar
    12    27    28   ar
    13     1    17    1
    14     1     2    1
    15     2     3    1
    16     3     4    1
    17     4     7    1
    18     7     8   ar
    19     8     9   ar
    20     9    10   ar
    21    10    11   ar
    22    11    12   ar
    23    12    13    1
    24    12    14   ar
    25    14    15   ar
    26    15    16   ar
    27     4     5    1
    28     6     5    1
    29    28    22   ar
    30     6     1    1
    31     6     2    1
    32    16     7   ar
    33    16    10   ar
    34    18    21    1
