@<TRIPOS>MOLECULE
*****
 37 42 0 0 0
SMALL
GASTEIGER

@<TRIPOS>ATOM
      1 C          63.6742   84.2460   13.8004 C.2     1  UNL1        0.1558
      2 N          64.4112   84.6990   15.0258 N.2     1  UNL1       -0.2402
      3 C          64.4708   86.1976   15.0032 C.2     1  UNL1        0.0929
      4 C          63.7707   86.6709   13.7639 C.2     1  UNL1        0.0093
      5 C          63.2783   85.4647   13.0205 C.3     1  UNL1        0.1374
      6 N          62.5332   85.6319   11.7295 N.pl3   1  UNL1       -0.3295
      7 C          62.2803   87.0053   11.1819 C.2     1  UNL1        0.0215
      8 C          62.7727   88.2115   11.9253 C.2     1  UNL1        0.0322
      9 C          62.5200   89.5849   11.3777 C.2     1  UNL1        0.1707
     10 O          63.0123   90.7911   12.1211 O.2     1  UNL1       -0.2916
     11 C          61.7748   89.7521   10.0867 C.3     1  UNL1        0.0693
     12 C          61.2824   88.5459    9.3433 C.3     1  UNL1        0.0141
     13 C          61.5352   87.1725    9.8909 C.3     1  UNL1        0.0411
     14 C          63.5179   88.0442   13.2164 C.3     1  UNL1        0.1049
     15 H          62.2100   84.8402   11.2416 H       1  UNL1        0.1471
     16 C          64.0103   89.2504   13.9598 C.ar    1  UNL1        0.1312
     17 C          63.4670   89.7683   15.2585 C.ar    1  UNL1        0.0373
     18 C          64.2534   90.9884   15.6364 C.ar    1  UNL1        0.0472
     19 C          65.2827   91.2247   14.5712 C.ar    1  UNL1        0.1774
     20 O          65.1325   90.1506   13.5351 O.2     1  UNL1       -0.4506
     21 S          66.2862   92.3394   14.5466 S.3     1  UNL1       -0.0117
     22 C          66.4176   93.2033   13.3275 C.2     1  UNL1        0.1967
     23 N          66.0469   94.6535   13.2304 N.2     1  UNL1       -0.2196
     24 C          66.3431   95.1153   11.8342 C.2     1  UNL1        0.1001
     25 C          66.1800   96.4459   11.1613 C.2     1  UNL1        0.0225
     26 C          66.5708   96.6116    9.7226 C.2     1  UNL1        0.0299
     27 C          67.1245   95.4468    8.9569 C.2     1  UNL1        0.1560
     28 F          67.5153   95.6125    7.5182 F       1  UNL1       -0.2056
     29 C          67.2876   94.1161    9.6298 C.3     1  UNL1        0.2514
     30 F          67.8414   92.9513    8.8641 F       1  UNL1       -0.2233
     31 C          66.8968   93.9504   11.0685 C.2     1  UNL1        0.1176
     32 N          66.9429   92.7687   11.9914 N.2     1  UNL1       -0.2206
     33 C          63.3839   82.8240   13.4213 C.2     1  UNL1        0.3569
     34 O          63.7625   81.7082   14.3496 O.2     1  UNL1       -0.2435
     35 O          62.7151   82.5178   12.1141 O.3     1  UNL1       -0.4446
     36 C          64.2513   83.0569   10.0894 C.3     1  UNL1        0.0513
     37 C          63.5318   82.0558   10.9438 C.3     1  UNL1        0.2089
@<TRIPOS>BOND
     1    36    37    1
     2    37    35    1
     3    35    33    1
     4    33    34    2
     5    33     1    1
     6     1     2    2
     7     2     3    1
     8     3     4    2
     9     4     5    1
    10     5     6    1
    11     6     7    1
    12     7     8    2
    13     8     9    1
    14     9    10    2
    15     9    11    1
    16    11    12    1
    17    12    13    1
    18     8    14    1
    19    14    16    1
    20    16    17   ar
    21    17    18   ar
    22    18    19   ar
    23    19    21    1
    24    21    22    1
    25    22    23    2
    26    23    24    1
    27    24    25    2
    28    25    26    1
    29    26    27    2
    30    27    28    1
    31    27    29    1
    32    29    30    1
    33    29    31    1
    34    31    32    2
    35    19    20   ar
    36     5     1    1
    37    13     7    1
    38    20    16   ar
    39    14     4    1
    40    32    22    1
    41    31    24    1
    42     6    15    1
@<TRIPOS>MOLECULE
*****
 37 42 0 0 0
SMALL
GASTEIGER

@<TRIPOS>ATOM
      1 C          66.0795   93.4459   12.2099 C.2     1  UNL1        0.1558
      2 N          66.5978   93.1392   13.5837 N.2     1  UNL1       -0.2402
      3 C          65.8872   91.9171   14.0851 C.2     1  UNL1        0.0929
      4 C          64.9296   91.4685   13.0212 C.2     1  UNL1        0.0093
      5 C          65.0485   92.4133   11.8622 C.3     1  UNL1        0.1374
      6 N          64.2027   92.2113   10.6401 N.pl3   1  UNL1       -0.3295
      7 C          63.2378   91.0645   10.5769 C.2     1  UNL1        0.0215
      8 C          63.1189   90.1197   11.7358 C.2     1  UNL1        0.0322
      9 C          62.1541   88.9729   11.6726 C.2     1  UNL1        0.1707
     10 O          62.0353   88.0280   12.8316 O.2     1  UNL1       -0.2916
     11 C          61.3083   88.7709   10.4505 C.3     1  UNL1        0.0693
     12 C          61.4272   89.7158    9.2915 C.3     1  UNL1        0.0141
     13 C          62.3919   90.8625    9.3547 C.3     1  UNL1        0.0411
     14 C          63.9649   90.3217   12.9580 C.3     1  UNL1        0.1049
     15 H          64.2807   92.8315    9.8794 H       1  UNL1        0.1471
     16 C          63.8460   89.3768   14.1169 C.ar    1  UNL1        0.1312
     17 C          63.3153   89.7142   15.4787 C.ar    1  UNL1        0.0373
     18 C          63.3782   88.4746   16.3210 C.ar    1  UNL1        0.0472
     19 C          63.9478   87.3711   15.4798 C.ar    1  UNL1        0.1774
     20 O          64.2369   87.9287   14.1176 O.2     1  UNL1       -0.4506
     21 S          64.1864   85.9580   15.9229 S.3     1  UNL1       -0.0117
     22 C          63.8442   84.8179   15.0103 C.2     1  UNL1        0.1967
     23 N          63.0226   83.6159   15.3709 N.2     1  UNL1       -0.2196
     24 C          62.9340   82.7347   14.1602 C.2     1  UNL1        0.1001
     25 C          62.2542   81.4186   13.9243 C.2     1  UNL1        0.0225
     26 C          62.3412   80.7599   12.5795 C.2     1  UNL1        0.0299
     27 C          63.1081   81.4173   11.4707 C.2     1  UNL1        0.1560
     28 F          63.1952   80.7586   10.1259 F       1  UNL1       -0.2056
     29 C          63.7880   82.7334   11.7065 C.3     1  UNL1        0.2514
     30 F          64.5549   83.3908   10.5977 F       1  UNL1       -0.2233
     31 C          63.7010   83.3921   13.0513 C.2     1  UNL1        0.1176
     32 N          64.2634   84.6796   13.5767 N.2     1  UNL1       -0.2206
     33 C          66.5156   94.5851   11.3370 C.2     1  UNL1        0.3569
     34 O          65.7945   95.8987   11.4023 O.2     1  UNL1       -0.2435
     35 O          67.6729   94.4107   10.3987 O.3     1  UNL1       -0.4446
     36 C          68.7143   92.3316    9.2398 C.3     1  UNL1        0.0513
     37 C          67.6224   93.3558    9.3334 C.3     1  UNL1        0.2089
@<TRIPOS>BOND
     1    36    37    1
     2    37    35    1
     3    35    33    1
     4    33    34    2
     5    33     1    1
     6     1     2    2
     7     2     3    1
     8     3     4    2
     9     4     5    1
    10     5     6    1
    11     6     7    1
    12     7     8    2
    13     8     9    1
    14     9    10    2
    15     9    11    1
    16    11    12    1
    17    12    13    1
    18     8    14    1
    19    14    16    1
    20    16    17   ar
    21    17    18   ar
    22    18    19   ar
    23    19    21    1
    24    21    22    1
    25    22    23    2
    26    23    24    1
    27    24    25    2
    28    25    26    1
    29    26    27    2
    30    27    28    1
    31    27    29    1
    32    29    30    1
    33    29    31    1
    34    31    32    2
    35    19    20   ar
    36     5     1    1
    37    13     7    1
    38    20    16   ar
    39    14     4    1
    40    32    22    1
    41    31    24    1
    42     6    15    1
@<TRIPOS>MOLECULE
*****
 37 42 0 0 0
SMALL
GASTEIGER

@<TRIPOS>ATOM
      1 C          60.8961   88.2124    9.5024 C.2     1  UNL1        0.1558
      2 N          61.0145   89.6979    9.6731 N.2     1  UNL1       -0.2402
      3 C          61.8778   89.9594   10.8716 C.2     1  UNL1        0.0929
      4 C          62.2930   88.6354   11.4416 C.2     1  UNL1        0.0093
      5 C          61.6862   87.5557   10.5953 C.3     1  UNL1        0.1374
      6 N          61.9316   86.1142   10.9293 N.pl3   1  UNL1       -0.3295
      7 C          62.7838   85.7522   12.1095 C.2     1  UNL1        0.0215
      8 C          63.3905   86.8319   12.9558 C.2     1  UNL1        0.0322
      9 C          64.2426   86.4701   14.1360 C.2     1  UNL1        0.1707
     10 O          64.8494   87.5498   14.9822 O.2     1  UNL1       -0.2916
     11 C          64.4880   85.0285   14.4699 C.3     1  UNL1        0.0693
     12 C          63.8813   83.9488   13.6237 C.3     1  UNL1        0.0141
     13 C          63.0292   84.3106   12.4435 C.3     1  UNL1        0.0411
     14 C          63.1451   88.2736   12.6217 C.3     1  UNL1        0.1049
     15 H          61.5334   85.4055   10.3739 H       1  UNL1        0.1471
     16 C          63.7518   89.3533   13.4680 C.ar    1  UNL1        0.1312
     17 C          63.3064   89.7498   14.8443 C.ar    1  UNL1        0.0373
     18 C          64.1898   90.8677   15.3134 C.ar    1  UNL1        0.0472
     19 C          65.1812   91.1620   14.2270 C.ar    1  UNL1        0.1774
     20 O          64.9105   90.2261   13.0864 O.2     1  UNL1       -0.4506
     21 S          66.2548   92.2086   14.2729 S.3     1  UNL1       -0.0117
     22 C          66.4164   93.1678   13.1313 C.2     1  UNL1        0.1967
     23 N          66.0413   94.6201   13.1401 N.2     1  UNL1       -0.2196
     24 C          66.3746   95.1932   11.7945 C.2     1  UNL1        0.1001
     25 C          66.2240   96.5731   11.2260 C.2     1  UNL1        0.0225
     26 C          66.6546   96.8548    9.8170 C.2     1  UNL1        0.0299
     27 C          67.2357   95.7567    8.9766 C.2     1  UNL1        0.1560
     28 F          67.6663   96.0384    7.5676 F       1  UNL1       -0.2056
     29 C          67.3863   94.3768    9.5451 C.3     1  UNL1        0.2514
     30 F          67.9674   93.2787    8.7047 F       1  UNL1       -0.2233
     31 C          66.9558   94.0951   10.9540 C.2     1  UNL1        0.1176
     32 N          66.9816   92.8433   11.7803 N.2     1  UNL1       -0.2206
     33 C          60.1233   87.5073    8.4274 C.2     1  UNL1        0.3569
     34 O          59.2210   88.2873    7.5179 O.2     1  UNL1       -0.2435
     35 O          60.2527   86.0220    8.2621 O.3     1  UNL1       -0.4446
     36 C          62.6848   85.2278    7.8105 C.3     1  UNL1        0.0513
     37 C          61.2830   85.4582    7.3290 C.3     1  UNL1        0.2089
@<TRIPOS>BOND
     1    36    37    1
     2    37    35    1
     3    35    33    1
     4    33    34    2
     5    33     1    1
     6     1     2    2
     7     2     3    1
     8     3     4    2
     9     4     5    1
    10     5     6    1
    11     6     7    1
    12     7     8    2
    13     8     9    1
    14     9    10    2
    15     9    11    1
    16    11    12    1
    17    12    13    1
    18     8    14    1
    19    14    16    1
    20    16    17   ar
    21    17    18   ar
    22    18    19   ar
    23    19    21    1
    24    21    22    1
    25    22    23    2
    26    23    24    1
    27    24    25    2
    28    25    26    1
    29    26    27    2
    30    27    28    1
    31    27    29    1
    32    29    30    1
    33    29    31    1
    34    31    32    2
    35    19    20   ar
    36     5     1    1
    37    13     7    1
    38    20    16   ar
    39    14     4    1
    40    32    22    1
    41    31    24    1
    42     6    15    1
@<TRIPOS>MOLECULE
*****
 37 42 0 0 0
SMALL
GASTEIGER

@<TRIPOS>ATOM
      1 C          60.5374   88.3883    9.3395 C.2     1  UNL1        0.1558
      2 N          60.7088   89.8624    9.5576 N.2     1  UNL1       -0.2402
      3 C          61.6265   90.0541   10.7285 C.2     1  UNL1        0.0929
      4 C          62.0223   88.6984   11.2341 C.2     1  UNL1        0.0093
      5 C          61.3491   87.6689   10.3757 C.3     1  UNL1        0.1374
      6 N          61.5622   86.2094   10.6484 N.pl3   1  UNL1       -0.3295
      7 C          62.4486   85.7794   11.7796 C.2     1  UNL1        0.0215
      8 C          63.1217   86.8089   12.6381 C.2     1  UNL1        0.0322
      9 C          64.0080   86.3790   13.7692 C.2     1  UNL1        0.1707
     10 O          64.6812   87.4085   14.6277 O.2     1  UNL1       -0.2916
     11 C          64.2212   84.9195   14.0420 C.3     1  UNL1        0.0693
     12 C          63.5480   83.8899   13.1835 C.3     1  UNL1        0.0141
     13 C          62.6617   84.3199   12.0524 C.3     1  UNL1        0.0411
     14 C          62.9086   88.2685   12.3653 C.3     1  UNL1        0.1049
     15 H          61.1204   85.5337   10.0850 H       1  UNL1        0.1471
     16 C          63.5817   89.2980   13.2237 C.ar    1  UNL1        0.1312
     17 C          63.3059   89.5519   14.6761 C.ar    1  UNL1        0.0373
     18 C          64.2026   90.6653   15.1305 C.ar    1  UNL1        0.0472
     19 C          65.0326   91.0994   13.9589 C.ar    1  UNL1        0.1774
     20 O          64.6489   90.2544   12.7805 O.2     1  UNL1       -0.4506
     21 S          66.0651   92.1875   13.9648 S.3     1  UNL1       -0.0117
     22 C          66.4551   92.8582   12.6811 C.2     1  UNL1        0.1967
     23 N          67.3569   92.2879   11.6268 N.2     1  UNL1       -0.2196
     24 C          67.4709   93.2942   10.5203 C.2     1  UNL1        0.1001
     25 C          68.2243   93.2790    9.2234 C.2     1  UNL1        0.0225
     26 C          68.1464   94.4560    8.2968 C.2     1  UNL1        0.0299
     27 C          67.3151   95.6483    8.6672 C.2     1  UNL1        0.1560
     28 F          67.2371   96.8253    7.7407 F       1  UNL1       -0.2056
     29 C          66.5616   95.6636    9.9642 C.3     1  UNL1        0.2514
     30 F          65.7303   96.8559   10.3346 F       1  UNL1       -0.2233
     31 C          66.6396   94.4866   10.8907 C.2     1  UNL1        0.1176
     32 N          66.0117   94.2170   12.2262 N.2     1  UNL1       -0.2206
     33 C          59.7010   87.7462    8.2727 C.2     1  UNL1        0.3569
     34 O          59.7262   86.2570    8.0946 O.2     1  UNL1       -0.2435
     35 O          58.8395   88.5933    7.3838 O.3     1  UNL1       -0.4446
     36 C          58.6600   90.5373    5.6696 C.3     1  UNL1        0.0513
     37 C          59.4696   89.4675    6.3404 C.3     1  UNL1        0.2089
@<TRIPOS>BOND
     1    36    37    1
     2    37    35    1
     3    35    33    1
     4    33    34    2
     5    33     1    1
     6     1     2    2
     7     2     3    1
     8     3     4    2
     9     4     5    1
    10     5     6    1
    11     6     7    1
    12     7     8    2
    13     8     9    1
    14     9    10    2
    15     9    11    1
    16    11    12    1
    17    12    13    1
    18     8    14    1
    19    14    16    1
    20    16    17   ar
    21    17    18   ar
    22    18    19   ar
    23    19    21    1
    24    21    22    1
    25    22    23    2
    26    23    24    1
    27    24    25    2
    28    25    26    1
    29    26    27    2
    30    27    28    1
    31    27    29    1
    32    29    30    1
    33    29    31    1
    34    31    32    2
    35    19    20   ar
    36     5     1    1
    37    13     7    1
    38    20    16   ar
    39    14     4    1
    40    32    22    1
    41    31    24    1
    42     6    15    1
