@<TRIPOS>MOLECULE
*****
 37 42 0 0 0
SMALL
GASTEIGER

@<TRIPOS>ATOM
      1 C          62.8378   90.5322   11.4308 C.3     1  UNL1        0.1095
      2 C          63.0163   91.3688   10.1986 C.3     1  UNL1        0.1598
      3 O          64.2051   92.2750   10.0732 O.3     1  UNL1       -0.3508
      4 C          65.2152   92.3445   11.1798 C.3     1  UNL1        0.1598
      5 C          65.0367   91.5078   12.4120 C.3     1  UNL1        0.1091
      6 N          63.8479   90.6017   12.5374 N.3     1  UNL1       -0.1533
      7 C          61.6490   89.6260   11.5562 C.3     1  UNL1        0.0261
      8 C          60.5418   90.6262   11.4036 C.3     1  UNL1        0.0020
      9 C          60.2191   89.1765   11.6135 C.3     1  UNL1        0.0020
     10 C          62.3435   88.3109   11.7523 C.3     1  UNL1        0.0867
     11 O          62.4594   87.8946    9.1904 O.2     1  UNL1       -0.2749
     12 C          62.5107   87.3711   10.5952 C.2     1  UNL1        0.2258
     13 N          62.7292   85.9080   10.8429 N.am    1  UNL1       -0.2768
     14 C          62.7804   85.3845   12.2477 C.3     1  UNL1        0.1093
     15 C          62.9989   83.9213   12.4954 C.3     1  UNL1        0.0775
     16 C          63.2274   82.4555   12.2738 C.3     1  UNL1        0.0191
     17 C          63.2943   82.2151   10.7948 C.3     1  UNL1        0.0191
     18 C          63.1072   83.5324   10.1021 C.3     1  UNL1        0.0775
     19 C          62.8964   84.9682    9.6859 C.3     1  UNL1        0.1093
     20 N          62.9246   84.5869   11.1532 N.3     1  UNL1       -0.2699
     21 C          62.7062   86.0501   10.9055 C.3     1  UNL1        0.1043
     22 C          61.7894   86.4957    9.8051 C.3     1  UNL1        0.1544
     23 O          60.3119   86.3856    9.5708 O.3     1  UNL1       -0.3805
     24 H          60.0968   85.4855    9.2802 H       1  UNL1        0.2105
     25 C          66.0468   91.5774   13.5186 C.3     1  UNL1        0.0189
     26 C          66.3672   91.6656   14.9813 C.3     1  UNL1        0.0015
     27 C          67.4760   91.6097   13.9728 C.3     1  UNL1        0.0015
     28 S          63.6693   89.7650   13.7696 S.O2    1  UNL1        0.0634
     29 O          64.2601   88.5923   13.4565 O.2     1  UNL1       -0.1528
     30 O          62.9483   90.8994   14.4353 O.2     1  UNL1       -0.1528
     31 C          63.4908   88.9283   15.0017 C.ar    1  UNL1        0.1223
     32 C          63.0030   89.5590   16.2722 C.ar    1  UNL1        0.0208
     33 C          62.8245   88.7223   17.5043 C.ar    1  UNL1        0.0128
     34 C          63.1338   87.2551   17.4659 C.ar    1  UNL1        0.0578
     35 CL         62.9553   86.4184   18.6980 Cl      1  UNL1       -0.0822
     36 C          63.6216   86.6244   16.1954 C.ar    1  UNL1        0.0128
     37 C          63.8002   87.4611   14.9632 C.ar    1  UNL1        0.0208
@<TRIPOS>BOND
     1    11    12    2
     2    12    10    1
     3    10     7    1
     4     1     7    1
     5     1     2    1
     6     2     3    1
     7     3     4    1
     8     4     5    1
     9     5    25    1
    10    25    26    1
    11    26    27    1
    12     5     6    1
    13     6    28    1
    14    28    29    2
    15    28    30    2
    16    28    31    1
    17    31    32   ar
    18    32    33   ar
    19    33    34   ar
    20    34    35    1
    21    34    36   ar
    22    36    37   ar
    23     7     8    1
    24     8     9    1
    25    12    13   am
    26    13    14    1
    27    14    15    1
    28    15    16    1
    29    16    17    1
    30    17    18    1
    31    18    19    1
    32    18    20    1
    33    20    21    1
    34    21    22    1
    35    22    23    1
    36     9     7    1
    37    19    13    1
    38     6     1    1
    39    37    31   ar
    40    20    15    1
    41    27    25    1
    42    23    24    1
@<TRIPOS>MOLECULE
*****
 37 42 0 0 0
SMALL
GASTEIGER

@<TRIPOS>ATOM
      1 C          63.5752   88.3884   13.3522 C.3     1  UNL1        0.1095
      2 C          64.4358   88.1691   14.5611 C.3     1  UNL1        0.1598
      3 O          64.8407   86.7785   14.9512 O.3     1  UNL1       -0.3508
      4 C          64.3851   85.6072   14.1324 C.3     1  UNL1        0.1598
      5 C          63.5246   85.8265   12.9235 C.3     1  UNL1        0.1091
      6 N          63.1197   87.2171   12.5334 N.3     1  UNL1       -0.1533
      7 C          63.1703   89.7790   12.9621 C.3     1  UNL1        0.0261
      8 C          61.6952   89.7037   13.2230 C.3     1  UNL1        0.0020
      9 C          62.3019   90.9758   12.7097 C.3     1  UNL1        0.0020
     10 C          64.5050   90.3374   12.5657 C.3     1  UNL1        0.0867
     11 O          64.9524   91.8153   14.6551 O.2     1  UNL1       -0.2749
     12 C          64.9888   91.6232   13.1680 C.2     1  UNL1        0.2258
     13 N          65.5092   92.7168   12.2830 N.am    1  UNL1       -0.2768
     14 C          65.5456   92.5247   10.7957 C.3     1  UNL1        0.1093
     15 C          66.0660   93.6184    9.9108 C.3     1  UNL1        0.0775
     16 C          66.6407   94.9222    9.4419 C.3     1  UNL1        0.0191
     17 C          66.8990   95.7754   10.6482 C.3     1  UNL1        0.0191
     18 C          66.4840   94.9990   11.8627 C.3     1  UNL1        0.0775
     19 C          65.9930   94.0026   12.8852 C.3     1  UNL1        0.1093
     20 N          65.9691   93.6658   11.4069 N.3     1  UNL1       -0.2699
     21 C          65.4488   92.5722   12.2919 C.3     1  UNL1        0.1043
     22 C          66.2917   92.0552   13.4197 C.3     1  UNL1        0.1544
     23 O          67.7333   91.6605   13.5474 O.3     1  UNL1       -0.3805
     24 H          67.8653   90.7855   13.1502 H       1  UNL1        0.2105
     25 C          63.0690   84.6552   12.1048 C.3     1  UNL1        0.0189
     26 C          62.9392   83.9708   10.7763 C.3     1  UNL1        0.0015
     27 C          62.4099   83.3108   12.0149 C.3     1  UNL1        0.0015
     28 S          62.2591   87.4364   11.3245 S.O2    1  UNL1        0.0634
     29 O          63.0642   88.0981   10.4663 O.2     1  UNL1       -0.1528
     30 O          61.1228   86.7334   12.0059 O.2     1  UNL1       -0.1528
     31 C          61.3987   87.6557   10.1155 C.ar    1  UNL1        0.1223
     32 C          60.9851   89.0454    9.7317 C.ar    1  UNL1        0.0208
     33 C          60.1246   89.2648    8.5227 C.ar    1  UNL1        0.0128
     34 C          59.6779   88.0944    7.6977 C.ar    1  UNL1        0.0578
     35 CL         58.8175   88.3138    6.4888 Cl      1  UNL1       -0.0822
     36 C          60.0915   86.7047    8.0816 C.ar    1  UNL1        0.0128
     37 C          60.9520   86.4853    9.2906 C.ar    1  UNL1        0.0208
@<TRIPOS>BOND
     1    11    12    2
     2    12    10    1
     3    10     7    1
     4     1     7    1
     5     1     2    1
     6     2     3    1
     7     3     4    1
     8     4     5    1
     9     5    25    1
    10    25    26    1
    11    26    27    1
    12     5     6    1
    13     6    28    1
    14    28    29    2
    15    28    30    2
    16    28    31    1
    17    31    32   ar
    18    32    33   ar
    19    33    34   ar
    20    34    35    1
    21    34    36   ar
    22    36    37   ar
    23     7     8    1
    24     8     9    1
    25    12    13   am
    26    13    14    1
    27    14    15    1
    28    15    16    1
    29    16    17    1
    30    17    18    1
    31    18    19    1
    32    18    20    1
    33    20    21    1
    34    21    22    1
    35    22    23    1
    36     9     7    1
    37    19    13    1
    38     6     1    1
    39    37    31   ar
    40    20    15    1
    41    27    25    1
    42    23    24    1
@<TRIPOS>MOLECULE
*****
 37 42 0 0 0
SMALL
GASTEIGER

@<TRIPOS>ATOM
      1 C          61.3200   89.6109   11.1709 C.3     1  UNL1        0.1095
      2 C          60.6292   90.8559   10.6989 C.3     1  UNL1        0.1598
      3 O          59.8055   90.8273    9.4456 O.3     1  UNL1       -0.3508
      4 C          59.6727   89.5538    8.6644 C.3     1  UNL1        0.1598
      5 C          60.3635   88.3088    9.1363 C.3     1  UNL1        0.1091
      6 N          61.1872   88.3374   10.3896 N.3     1  UNL1       -0.1533
      7 C          62.1437   89.6394   12.4242 C.3     1  UNL1        0.0261
      8 C          61.0664   89.4397   13.4485 C.3     1  UNL1        0.0020
      9 C          62.4938   89.5952   13.8821 C.3     1  UNL1        0.0020
     10 C          63.5072   89.8491   11.8351 C.3     1  UNL1        0.0867
     11 O          63.6521   92.0667   10.4893 O.2     1  UNL1       -0.2749
     12 C          64.0495   91.2385   11.6750 C.2     1  UNL1        0.2258
     13 N          64.9892   91.7995   12.7007 N.am    1  UNL1       -0.2768
     14 C          65.3867   90.9712   13.8865 C.3     1  UNL1        0.1093
     15 C          66.3265   91.5323   14.9123 C.3     1  UNL1        0.0775
     16 C          67.2461   92.4616   15.6476 C.3     1  UNL1        0.0191
     17 C          67.3297   93.7418   14.8707 C.3     1  UNL1        0.0191
     18 C          66.4618   93.6040   13.6550 C.3     1  UNL1        0.0775
     19 C          65.5316   93.1888   12.5407 C.3     1  UNL1        0.1093
     20 N          65.8417   92.2383   13.6807 N.3     1  UNL1       -0.2699
     21 C          64.9020   91.6773   12.6550 C.3     1  UNL1        0.1043
     22 C          65.1263   91.9587   11.1989 C.3     1  UNL1        0.1544
     23 O          66.3482   92.1598   10.3524 O.3     1  UNL1       -0.3805
     24 H          66.7003   93.0516   10.4995 H       1  UNL1        0.2105
     25 C          60.2307   87.0353    8.3550 C.3     1  UNL1        0.0189
     26 C          60.8597   85.9116    7.5858 C.3     1  UNL1        0.0015
     27 C          59.3718   85.9533    7.7707 C.3     1  UNL1        0.0015
     28 S          61.8781   87.0923   10.8615 S.O2    1  UNL1        0.0634
     29 O          61.0658   86.6146   11.8282 O.2     1  UNL1       -0.1528
     30 O          62.9804   87.3290    9.8723 O.2     1  UNL1       -0.1528
     31 C          62.5688   85.8473   11.3335 C.ar    1  UNL1        0.1223
     32 C          62.8125   84.7169   10.3782 C.ar    1  UNL1        0.0208
     33 C          63.5033   83.4719   10.8501 C.ar    1  UNL1        0.0128
     34 C          63.9503   83.3573   12.2774 C.ar    1  UNL1        0.0578
     35 CL         64.6411   82.1123   12.7493 Cl      1  UNL1       -0.0822
     36 C          63.7066   84.4877   13.2327 C.ar    1  UNL1        0.0128
     37 C          63.0159   85.7328   12.7608 C.ar    1  UNL1        0.0208
@<TRIPOS>BOND
     1    11    12    2
     2    12    10    1
     3    10     7    1
     4     1     7    1
     5     1     2    1
     6     2     3    1
     7     3     4    1
     8     4     5    1
     9     5    25    1
    10    25    26    1
    11    26    27    1
    12     5     6    1
    13     6    28    1
    14    28    29    2
    15    28    30    2
    16    28    31    1
    17    31    32   ar
    18    32    33   ar
    19    33    34   ar
    20    34    35    1
    21    34    36   ar
    22    36    37   ar
    23     7     8    1
    24     8     9    1
    25    12    13   am
    26    13    14    1
    27    14    15    1
    28    15    16    1
    29    16    17    1
    30    17    18    1
    31    18    19    1
    32    18    20    1
    33    20    21    1
    34    21    22    1
    35    22    23    1
    36     9     7    1
    37    19    13    1
    38     6     1    1
    39    37    31   ar
    40    20    15    1
    41    27    25    1
    42    23    24    1
@<TRIPOS>MOLECULE
*****
 37 42 0 0 0
SMALL
GASTEIGER

@<TRIPOS>ATOM
      1 C          63.4312   89.7319   13.1326 C.3     1  UNL1        0.1095
      2 C          62.3219   89.1731   12.2916 C.3     1  UNL1        0.1598
      3 O          62.0861   89.7075   10.9100 O.3     1  UNL1       -0.3508
      4 C          62.9595   90.8007   10.3695 C.3     1  UNL1        0.1598
      5 C          64.0687   91.3595   11.2105 C.3     1  UNL1        0.1091
      6 N          64.3045   90.8251   12.5921 N.3     1  UNL1       -0.1533
      7 C          63.6670   89.1975   14.5142 C.3     1  UNL1        0.0261
      8 C          63.0653   90.3046   15.3279 C.3     1  UNL1        0.0020
      9 C          63.6654   89.1121   16.0118 C.3     1  UNL1        0.0020
     10 C          64.3506   87.9047   14.1803 C.3     1  UNL1        0.0867
     11 O          63.9323   86.5700   16.3697 O.2     1  UNL1       -0.2749
     12 C          63.9392   86.6385   14.8713 C.2     1  UNL1        0.2258
     13 N          63.5348   85.4409   14.0638 N.am    1  UNL1       -0.2768
     14 C          63.5417   85.5094   12.5653 C.3     1  UNL1        0.1093
     15 C          63.1373   84.3117   11.7579 C.3     1  UNL1        0.0775
     16 C          62.6780   82.9345   11.3806 C.3     1  UNL1        0.0191
     17 C          62.4365   82.1639   12.6445 C.3     1  UNL1        0.0191
     18 C          62.7465   83.0648   13.8032 C.3     1  UNL1        0.0775
     19 C          63.1234   84.1746   14.7547 C.3     1  UNL1        0.1093
     20 N          63.1796   84.3923   13.2551 N.3     1  UNL1       -0.2699
     21 C          63.5841   85.5899   14.0626 C.3     1  UNL1        0.1043
     22 C          64.7227   85.4898   15.0339 C.3     1  UNL1        0.1544
     23 O          66.2011   85.2815   14.8887 O.3     1  UNL1       -0.3805
     24 H          66.3791   84.3462   14.7029 H       1  UNL1        0.2105
     25 C          64.9420   92.4526   10.6700 C.3     1  UNL1        0.0189
     26 C          65.1609   93.9015   10.3490 C.3     1  UNL1        0.0015
     27 C          66.2357   92.8974   10.0547 C.3     1  UNL1        0.0015
     28 S          65.4138   91.3839   13.4332 S.O2    1  UNL1        0.0634
     29 O          66.4522   90.5542   13.1974 O.2     1  UNL1       -0.1528
     30 O          64.5012   92.4733   13.9129 O.2     1  UNL1       -0.1528
     31 C          66.5230   91.9427   14.2742 C.ar    1  UNL1        0.1223
     32 C          67.9259   91.9687   13.7440 C.ar    1  UNL1        0.0208
     33 C          69.0353   92.5275   14.5849 C.ar    1  UNL1        0.0128
     34 C          68.7416   93.0601   15.9561 C.ar    1  UNL1        0.0578
     35 CL         69.8510   93.6188   16.7971 Cl      1  UNL1       -0.0822
     36 C          67.3388   93.0340   16.4863 C.ar    1  UNL1        0.0128
     37 C          66.2294   92.4753   15.6454 C.ar    1  UNL1        0.0208
@<TRIPOS>BOND
     1    11    12    2
     2    12    10    1
     3    10     7    1
     4     1     7    1
     5     1     2    1
     6     2     3    1
     7     3     4    1
     8     4     5    1
     9     5    25    1
    10    25    26    1
    11    26    27    1
    12     5     6    1
    13     6    28    1
    14    28    29    2
    15    28    30    2
    16    28    31    1
    17    31    32   ar
    18    32    33   ar
    19    33    34   ar
    20    34    35    1
    21    34    36   ar
    22    36    37   ar
    23     7     8    1
    24     8     9    1
    25    12    13   am
    26    13    14    1
    27    14    15    1
    28    15    16    1
    29    16    17    1
    30    17    18    1
    31    18    19    1
    32    18    20    1
    33    20    21    1
    34    21    22    1
    35    22    23    1
    36     9     7    1
    37    19    13    1
    38     6     1    1
    39    37    31   ar
    40    20    15    1
    41    27    25    1
    42    23    24    1
@<TRIPOS>MOLECULE
*****
 37 42 0 0 0
SMALL
GASTEIGER

@<TRIPOS>ATOM
      1 C          64.4986   90.0189   14.8099 C.3     1  UNL1        0.1095
      2 C          65.5486   90.6755   15.6563 C.3     1  UNL1        0.1598
      3 O          66.3604   91.8076   15.1001 O.3     1  UNL1       -0.3508
      4 C          66.1223   92.2830   13.6975 C.3     1  UNL1        0.1598
      5 C          65.0723   91.6264   12.8511 C.3     1  UNL1        0.1091
      6 N          64.2604   90.4944   13.4073 N.3     1  UNL1       -0.1533
      7 C          63.6867   88.8869   15.3661 C.3     1  UNL1        0.0261
      8 C          62.8202   89.6382   16.3329 C.3     1  UNL1        0.0020
      9 C          62.6718   88.1524   16.1910 C.3     1  UNL1        0.0020
     10 C          64.2712   87.7424   14.5925 C.3     1  UNL1        0.0867
     11 O          64.4892   86.0795   16.5767 O.2     1  UNL1       -0.2749
     12 C          64.1790   86.3464   15.1337 C.2     1  UNL1        0.2258
     13 N          63.7765   85.2175   14.2318 N.am    1  UNL1       -0.2768
     14 C          63.4663   85.4844   12.7886 C.3     1  UNL1        0.1093
     15 C          63.0638   84.3554   11.8867 C.3     1  UNL1        0.0775
     16 C          62.7199   82.9850   11.3830 C.3     1  UNL1        0.0191
     17 C          62.8458   82.0250   12.5286 C.3     1  UNL1        0.0191
     18 C          63.2674   82.8020   13.7405 C.3     1  UNL1        0.0775
     19 C          63.6842   83.8216   14.7729 C.3     1  UNL1        0.1093
     20 N          63.4022   84.2424   13.3437 N.3     1  UNL1       -0.2699
     21 C          63.8047   85.3713   14.2456 C.3     1  UNL1        0.1043
     22 C          65.1159   85.3198   14.9722 C.3     1  UNL1        0.1544
     23 O          66.5214   84.9916   14.5639 O.3     1  UNL1       -0.3805
     24 H          66.6179   84.0299   14.4812 H       1  UNL1        0.2105
     25 C          64.8342   92.1019   11.4486 C.3     1  UNL1        0.0189
     26 C          65.1895   93.0058   10.3055 C.3     1  UNL1        0.0015
     27 C          64.0666   92.0216   10.1624 C.3     1  UNL1        0.0015
     28 S          63.2104   89.8378   12.5609 S.O2    1  UNL1        0.0634
     29 O          63.8450   88.7774   12.0175 O.2     1  UNL1       -0.1528
     30 O          62.2220   90.8883   12.9722 O.2     1  UNL1       -0.1528
     31 C          62.1604   89.1811   11.7145 C.ar    1  UNL1        0.1223
     32 C          60.7154   89.5370   11.9020 C.ar    1  UNL1        0.0208
     33 C          59.6654   88.8804   11.0556 C.ar    1  UNL1        0.0128
     34 C          60.0605   87.8680   10.0217 C.ar    1  UNL1        0.0578
     35 CL         59.0105   87.2114    9.1753 Cl      1  UNL1       -0.0822
     36 C          61.5055   87.5121    9.8342 C.ar    1  UNL1        0.0128
     37 C          62.5555   88.1687   10.6806 C.ar    1  UNL1        0.0208
@<TRIPOS>BOND
     1    11    12    2
     2    12    10    1
     3    10     7    1
     4     1     7    1
     5     1     2    1
     6     2     3    1
     7     3     4    1
     8     4     5    1
     9     5    25    1
    10    25    26    1
    11    26    27    1
    12     5     6    1
    13     6    28    1
    14    28    29    2
    15    28    30    2
    16    28    31    1
    17    31    32   ar
    18    32    33   ar
    19    33    34   ar
    20    34    35    1
    21    34    36   ar
    22    36    37   ar
    23     7     8    1
    24     8     9    1
    25    12    13   am
    26    13    14    1
    27    14    15    1
    28    15    16    1
    29    16    17    1
    30    17    18    1
    31    18    19    1
    32    18    20    1
    33    20    21    1
    34    21    22    1
    35    22    23    1
    36     9     7    1
    37    19    13    1
    38     6     1    1
    39    37    31   ar
    40    20    15    1
    41    27    25    1
    42    23    24    1
@<TRIPOS>MOLECULE
*****
 37 42 0 0 0
SMALL
GASTEIGER

@<TRIPOS>ATOM
      1 C          59.9724   96.0709   -2.5552 C.3     1  UNL1        0.1095
      2 C          59.5015   96.8471   -3.7493 C.3     1  UNL1        0.1598
      3 O          60.2065   96.6999   -5.0651 O.3     1  UNL1       -0.3508
      4 C          61.3823   95.7766   -5.1868 C.3     1  UNL1        0.1598
      5 C          61.8532   95.0004   -3.9927 C.3     1  UNL1        0.1091
      6 N          61.1482   95.1476   -2.6769 N.3     1  UNL1       -0.1533
      7 C          59.2674   96.2181   -1.2394 C.3     1  UNL1        0.0261
      8 C          60.3905   96.7512   -0.4003 C.3     1  UNL1        0.0020
      9 C          59.0375   96.5327    0.2091 C.3     1  UNL1        0.0020
     10 C          57.8993   95.7359   -1.6215 C.3     1  UNL1        0.0867
     11 O          57.8300   93.4021   -0.4821 O.2     1  UNL1       -0.2749
     12 C          57.6146   94.2648   -1.6901 C.2     1  UNL1        0.2258
     13 N          57.1144   93.6565   -2.9667 N.am    1  UNL1       -0.2768
     14 C          56.8990   94.5192   -4.1747 C.3     1  UNL1        0.1093
     15 C          56.3988   93.9108   -5.4514 C.3     1  UNL1        0.0775
     16 C          55.9107   92.9158   -6.4622 C.3     1  UNL1        0.0191
     17 C          55.8707   91.5684   -5.8044 C.3     1  UNL1        0.0191
     18 C          56.3340   91.7305   -4.3869 C.3     1  UNL1        0.0775
     19 C          56.8296   92.1854   -3.0354 C.3     1  UNL1        0.1093
     20 N          56.6604   93.1783   -4.1688 N.3     1  UNL1       -0.2699
     21 C          57.1606   93.7866   -2.8922 C.3     1  UNL1        0.1043
     22 C          56.2788   93.8153   -1.6791 C.3     1  UNL1        0.1544
     23 O          54.7941   93.7753   -1.4688 O.3     1  UNL1       -0.3805
     24 H          54.4156   94.6457   -1.6689 H       1  UNL1        0.2105
     25 C          63.0290   94.0771   -4.1145 C.3     1  UNL1        0.0189
     26 C          63.5820   92.6911   -4.2664 C.3     1  UNL1        0.0015
     27 C          64.5126   93.8638   -4.1736 C.3     1  UNL1        0.0015
     28 S          61.6191   94.3713   -1.4829 S.O2    1  UNL1        0.0634
     29 O          60.8204   93.2832   -1.4650 O.2     1  UNL1       -0.1528
     30 O          62.6511   95.4239   -1.2056 O.2     1  UNL1       -0.1528
     31 C          62.0899   93.5951   -0.2888 C.ar    1  UNL1        0.1223
     32 C          63.5195   93.6945    0.1541 C.ar    1  UNL1        0.0208
     33 C          63.9905   92.9183    1.3481 C.ar    1  UNL1        0.0128
     34 C          63.0317   92.0426    2.0992 C.ar    1  UNL1        0.0578
     35 CL         63.5026   91.2664    3.2932 Cl      1  UNL1       -0.0822
     36 C          61.6021   91.9432    1.6562 C.ar    1  UNL1        0.0128
     37 C          61.1312   92.7194    0.4622 C.ar    1  UNL1        0.0208
@<TRIPOS>BOND
     1    11    12    2
     2    12    10    1
     3    10     7    1
     4     1     7    1
     5     1     2    1
     6     2     3    1
     7     3     4    1
     8     4     5    1
     9     5    25    1
    10    25    26    1
    11    26    27    1
    12     5     6    1
    13     6    28    1
    14    28    29    2
    15    28    30    2
    16    28    31    1
    17    31    32   ar
    18    32    33   ar
    19    33    34   ar
    20    34    35    1
    21    34    36   ar
    22    36    37   ar
    23     7     8    1
    24     8     9    1
    25    12    13   am
    26    13    14    1
    27    14    15    1
    28    15    16    1
    29    16    17    1
    30    17    18    1
    31    18    19    1
    32    18    20    1
    33    20    21    1
    34    21    22    1
    35    22    23    1
    36     9     7    1
    37    19    13    1
    38     6     1    1
    39    37    31   ar
    40    20    15    1
    41    27    25    1
    42    23    24    1
@<TRIPOS>MOLECULE
*****
 37 42 0 0 0
SMALL
GASTEIGER

@<TRIPOS>ATOM
      1 C          59.9580   94.0831    0.0158 C.3     1  UNL1        0.1095
      2 C          59.2325   93.5336    1.2082 C.3     1  UNL1        0.1598
      3 O          60.0067   93.0072    2.3801 O.3     1  UNL1       -0.3508
      4 C          61.5064   93.0303    2.3597 C.3     1  UNL1        0.1598
      5 C          62.2319   93.5798    1.1674 C.3     1  UNL1        0.1091
      6 N          61.4577   94.1063   -0.0046 N.3     1  UNL1       -0.1533
      7 C          59.1838   94.6095   -1.1561 C.3     1  UNL1        0.0261
      8 C          58.9482   96.0191   -0.7007 C.3     1  UNL1        0.0020
      9 C          58.4211   95.5620   -2.0285 C.3     1  UNL1        0.0020
     10 C          59.1505   93.3827   -2.0186 C.3     1  UNL1        0.0867
     11 O          57.2179   92.0582   -0.8958 O.2     1  UNL1       -0.2749
     12 C          57.8887   92.5796   -2.1320 C.2     1  UNL1        0.2258
     13 N          57.2977   92.2980   -3.4815 N.am    1  UNL1       -0.2768
     14 C          57.9685   92.8194   -4.7178 C.3     1  UNL1        0.1093
     15 C          57.3774   92.5377   -6.0674 C.3     1  UNL1        0.0775
     16 C          56.4705   92.0335   -7.1505 C.3     1  UNL1        0.0191
     17 C          55.3547   91.2689   -6.5023 C.3     1  UNL1        0.0191
     18 C          55.5719   91.3004   -5.0184 C.3     1  UNL1        0.0775
     19 C          56.0358   91.4949   -3.5950 C.3     1  UNL1        0.1093
     20 N          56.8221   92.0846   -4.7496 N.3     1  UNL1       -0.2699
     21 C          57.4131   92.3663   -3.4001 C.3     1  UNL1        0.1043
     22 C          56.5158   92.6678   -2.2365 C.3     1  UNL1        0.1544
     23 O          55.4636   93.7039   -1.9729 O.3     1  UNL1       -0.3805
     24 H          55.8886   94.5507   -1.7652 H       1  UNL1        0.2105
     25 C          63.7315   93.6029    1.1470 C.3     1  UNL1        0.0189
     26 C          65.0256   94.2642    1.5185 C.3     1  UNL1        0.0015
     27 C          65.0349   92.9818    0.7404 C.3     1  UNL1        0.0015
     28 S          62.1832   94.6558   -1.1969 S.O2    1  UNL1        0.0634
     29 O          62.2565   95.9814   -0.9522 O.2     1  UNL1       -0.1528
     30 O          62.2801   93.2749   -1.7744 O.2     1  UNL1       -0.1528
     31 C          62.9087   95.2054   -2.3892 C.ar    1  UNL1        0.1223
     32 C          64.3866   95.4516   -2.3198 C.ar    1  UNL1        0.0208
     33 C          65.1122   96.0013   -3.5121 C.ar    1  UNL1        0.0128
     34 C          64.3597   96.3046   -4.7737 C.ar    1  UNL1        0.0578
     35 CL         65.0853   96.8542   -5.9660 Cl      1  UNL1       -0.0822
     36 C          62.8818   96.0583   -4.8432 C.ar    1  UNL1        0.0128
     37 C          62.1562   95.5087   -3.6509 C.ar    1  UNL1        0.0208
@<TRIPOS>BOND
     1    11    12    2
     2    12    10    1
     3    10     7    1
     4     1     7    1
     5     1     2    1
     6     2     3    1
     7     3     4    1
     8     4     5    1
     9     5    25    1
    10    25    26    1
    11    26    27    1
    12     5     6    1
    13     6    28    1
    14    28    29    2
    15    28    30    2
    16    28    31    1
    17    31    32   ar
    18    32    33   ar
    19    33    34   ar
    20    34    35    1
    21    34    36   ar
    22    36    37   ar
    23     7     8    1
    24     8     9    1
    25    12    13   am
    26    13    14    1
    27    14    15    1
    28    15    16    1
    29    16    17    1
    30    17    18    1
    31    18    19    1
    32    18    20    1
    33    20    21    1
    34    21    22    1
    35    22    23    1
    36     9     7    1
    37    19    13    1
    38     6     1    1
    39    37    31   ar
    40    20    15    1
    41    27    25    1
    42    23    24    1
@<TRIPOS>MOLECULE
*****
 37 42 0 0 0
SMALL
GASTEIGER

@<TRIPOS>ATOM
      1 C          63.6304   88.4244   13.2779 C.3     1  UNL1        0.1095
      2 C          64.5059   88.1999   14.4750 C.3     1  UNL1        0.1598
      3 O          64.8903   86.8054   14.8721 O.3     1  UNL1       -0.3508
      4 C          64.3992   85.6356   14.0720 C.3     1  UNL1        0.1598
      5 C          63.5237   85.8601   12.8749 C.3     1  UNL1        0.1091
      6 N          63.1393   87.2546   12.4778 N.3     1  UNL1       -0.1533
      7 C          63.2460   89.8189   12.8808 C.3     1  UNL1        0.0261
      8 C          61.8236   89.8423   13.3560 C.3     1  UNL1        0.0020
      9 C          62.4140   91.0533   12.6967 C.3     1  UNL1        0.0020
     10 C          64.5351   90.2799   12.2677 C.3     1  UNL1        0.0867
     11 O          64.3891   92.7400   11.4452 O.2     1  UNL1       -0.2749
     12 C          64.9508   91.7163   12.3867 C.2     1  UNL1        0.2258
     13 N          65.9282   92.1287   13.4471 N.am    1  UNL1       -0.2768
     14 C          66.4899   91.1049   14.3886 C.3     1  UNL1        0.1093
     15 C          67.4673   91.5174   15.4491 C.3     1  UNL1        0.0775
     16 C          68.3707   92.3487   16.3109 C.3     1  UNL1        0.0191
     17 C          68.2865   93.7689   15.8360 C.3     1  UNL1        0.0191
     18 C          67.3309   93.8157   14.6807 C.3     1  UNL1        0.0775
     19 C          66.3439   93.5650   13.5662 C.3     1  UNL1        0.1093
     20 N          66.8246   92.4240   14.4416 N.3     1  UNL1       -0.2699
     21 C          65.8472   92.0116   13.3811 C.3     1  UNL1        0.1043
     22 C          66.1130   92.3493   11.9440 C.3     1  UNL1        0.1544
     23 O          67.3569   92.4679   11.1142 O.3     1  UNL1       -0.3805
     24 H          67.7992   93.3080   11.3128 H       1  UNL1        0.2105
     25 C          63.0327   84.6902   12.0749 C.3     1  UNL1        0.0189
     26 C          62.8712   83.9945   10.7558 C.3     1  UNL1        0.0015
     27 C          62.3436   83.3595   12.0081 C.3     1  UNL1        0.0015
     28 S          62.2638   87.4791   11.2807 S.O2    1  UNL1        0.0634
     29 O          63.0764   88.0888   10.3916 O.2     1  UNL1       -0.1528
     30 O          61.1152   86.8369   12.0003 O.2     1  UNL1       -0.1528
     31 C          61.3884   87.7037   10.0835 C.ar    1  UNL1        0.1223
     32 C          61.0044   89.0981    9.6863 C.ar    1  UNL1        0.0208
     33 C          60.1290   89.3228    8.4892 C.ar    1  UNL1        0.0128
     34 C          59.6376   88.1529    7.6892 C.ar    1  UNL1        0.0578
     35 CL         58.7622   88.3775    6.4921 Cl      1  UNL1       -0.0822
     36 C          60.0217   86.7584    8.0864 C.ar    1  UNL1        0.0128
     37 C          60.8971   86.5337    9.2836 C.ar    1  UNL1        0.0208
@<TRIPOS>BOND
     1    11    12    2
     2    12    10    1
     3    10     7    1
     4     1     7    1
     5     1     2    1
     6     2     3    1
     7     3     4    1
     8     4     5    1
     9     5    25    1
    10    25    26    1
    11    26    27    1
    12     5     6    1
    13     6    28    1
    14    28    29    2
    15    28    30    2
    16    28    31    1
    17    31    32   ar
    18    32    33   ar
    19    33    34   ar
    20    34    35    1
    21    34    36   ar
    22    36    37   ar
    23     7     8    1
    24     8     9    1
    25    12    13   am
    26    13    14    1
    27    14    15    1
    28    15    16    1
    29    16    17    1
    30    17    18    1
    31    18    19    1
    32    18    20    1
    33    20    21    1
    34    21    22    1
    35    22    23    1
    36     9     7    1
    37    19    13    1
    38     6     1    1
    39    37    31   ar
    40    20    15    1
    41    27    25    1
    42    23    24    1
@<TRIPOS>MOLECULE
*****
 37 42 0 0 0
SMALL
GASTEIGER

@<TRIPOS>ATOM
      1 C          62.9173   88.8850   12.7154 C.3     1  UNL1        0.1095
      2 C          63.3672   89.4279   14.0394 C.3     1  UNL1        0.1598
      3 O          63.8612   88.4939   15.1041 O.3     1  UNL1       -0.3508
      4 C          63.9053   87.0172   14.8449 C.3     1  UNL1        0.1598
      5 C          63.4554   86.4743   13.5210 C.3     1  UNL1        0.1091
      6 N          62.9614   87.4083   12.4562 N.3     1  UNL1       -0.1533
      7 C          62.4233   89.8189   11.6506 C.3     1  UNL1        0.0261
      8 C          60.9472   89.7498   11.9078 C.3     1  UNL1        0.0020
      9 C          61.4763   90.6162   10.8036 C.3     1  UNL1        0.0020
     10 C          63.7280   90.2125   11.0236 C.3     1  UNL1        0.0867
     11 O          63.8251   92.6356   10.0912 O.2     1  UNL1       -0.2749
     12 C          64.2151   91.6272   11.1309 C.2     1  UNL1        0.2258
     13 N          65.0922   92.0333   12.2779 N.am    1  UNL1       -0.2768
     14 C          65.4822   91.0249   13.3176 C.3     1  UNL1        0.1093
     15 C          66.3594   91.4311   14.4647 C.3     1  UNL1        0.0775
     16 C          67.2109   92.2497   15.3892 C.3     1  UNL1        0.0191
     17 C          67.2670   93.6486   14.8509 C.3     1  UNL1        0.0191
     18 C          66.4501   93.6947   13.5937 C.3     1  UNL1        0.0775
     19 C          65.5794   93.4479   12.3853 C.3     1  UNL1        0.1093
     20 N          65.8892   92.3241   13.3550 N.3     1  UNL1       -0.2699
     21 C          65.0121   91.9179   12.2080 C.3     1  UNL1        0.1043
     22 C          65.3882   92.2955   10.8059 C.3     1  UNL1        0.1544
     23 O          66.6765   92.2990   10.0375 O.3     1  UNL1       -0.3805
     24 H          67.2098   93.0641   10.3040 H       1  UNL1        0.2105
     25 C          63.4995   84.9976   13.2618 C.3     1  UNL1        0.0189
     26 C          64.2869   83.7356   13.0685 C.3     1  UNL1        0.0015
     27 C          62.7886   83.7017   13.0064 C.3     1  UNL1        0.0015
     28 S          62.5115   86.8654   11.1322 S.O2    1  UNL1        0.0634
     29 O          63.5742   87.0577   10.3222 O.2     1  UNL1       -0.1528
     30 O          61.1825   86.5097   11.7297 O.2     1  UNL1       -0.1528
     31 C          62.0617   86.3225    9.8082 C.ar    1  UNL1        0.1223
     32 C          60.6914   86.6466    9.2913 C.ar    1  UNL1        0.0208
     33 C          60.2415   86.1038    7.9673 C.ar    1  UNL1        0.0128
     34 C          61.1620   85.2369    7.1603 C.ar    1  UNL1        0.0578
     35 CL         60.7121   84.6940    5.8363 Cl      1  UNL1       -0.0822
     36 C          62.5322   84.9127    7.6772 C.ar    1  UNL1        0.0128
     37 C          62.9821   85.4555    9.0013 C.ar    1  UNL1        0.0208
@<TRIPOS>BOND
     1    11    12    2
     2    12    10    1
     3    10     7    1
     4     1     7    1
     5     1     2    1
     6     2     3    1
     7     3     4    1
     8     4     5    1
     9     5    25    1
    10    25    26    1
    11    26    27    1
    12     5     6    1
    13     6    28    1
    14    28    29    2
    15    28    30    2
    16    28    31    1
    17    31    32   ar
    18    32    33   ar
    19    33    34   ar
    20    34    35    1
    21    34    36   ar
    22    36    37   ar
    23     7     8    1
    24     8     9    1
    25    12    13   am
    26    13    14    1
    27    14    15    1
    28    15    16    1
    29    16    17    1
    30    17    18    1
    31    18    19    1
    32    18    20    1
    33    20    21    1
    34    21    22    1
    35    22    23    1
    36     9     7    1
    37    19    13    1
    38     6     1    1
    39    37    31   ar
    40    20    15    1
    41    27    25    1
    42    23    24    1
