@<TRIPOS>MOLECULE
*****
 33 36 0 0 0
SMALL
GASTEIGER

@<TRIPOS>ATOM
      1 N          63.0402   86.6347   12.4962 N.pl3   1  UNL1       -0.2764
      2 C          63.8046   86.2465   13.7270 C.3     1  UNL1        0.1094
      3 C          63.9108   84.7505   13.7542 C.3     1  UNL1        0.0767
      4 N          64.5956   83.9343   14.8101 N.3     1  UNL1       -0.3205
      5 C          63.2120   84.2141   12.5401 C.3     1  UNL1        0.0603
      6 C          62.6739   85.3786   11.7627 C.3     1  UNL1        0.0994
      7 H          64.9856   84.5546   15.5197 H       1  UNL1        0.1189
      8 H          65.3459   83.3894   14.3852 H       1  UNL1        0.1189
      9 C          63.0753   82.7673   12.1687 C.ar    1  UNL1        0.0103
     10 C          62.4976   81.7921   13.1513 C.ar    1  UNL1        0.0300
     11 C          62.3609   80.3453   12.7799 C.ar    1  UNL1        0.1672
     12 F          61.7833   79.3701   13.7623 F       1  UNL1       -0.2018
     13 C          62.8018   79.8737   11.4259 C.ar    1  UNL1        0.1696
     14 F          62.6651   78.4268   11.0544 F       1  UNL1       -0.2017
     15 C          63.3794   80.8488   10.4434 C.ar    1  UNL1        0.0612
     16 C          63.5161   82.2957   10.8148 C.ar    1  UNL1        0.1386
     17 F          64.0938   83.2709    9.8323 F       1  UNL1       -0.2044
     18 C          63.3765   90.5274   11.8004 C.ar    1  UNL1        0.1669
     19 N          62.0240   90.8308   11.2271 N.ar    1  UNL1       -0.2047
     20 C          61.0102   89.7355   11.0769 C.ar    1  UNL1        0.2027
     21 N          61.3489   88.3368   11.4999 N.ar    1  UNL1       -0.1913
     22 C          62.7015   88.0334   12.0732 C.ar    1  UNL1        0.2230
     23 N          63.7152   89.1287   12.2234 N.ar    1  UNL1       -0.1945
     24 C          66.1642   92.8653   13.3857 C.ar    1  UNL1        0.1058
     25 C          66.4181   93.8131   12.2512 C.ar    1  UNL1        0.0183
     26 C          65.6581   93.6657   10.9664 C.ar    1  UNL1        0.0014
     27 C          64.6443   92.5704   10.8161 C.ar    1  UNL1        0.0031
     28 C          64.3904   91.6227   11.9506 C.ar    1  UNL1        0.0372
     29 C          65.1504   91.7701   13.2354 C.ar    1  UNL1        0.0214
     30 C          67.6841   93.1601   15.9553 C.3     1  UNL1        0.1816
     31 S          66.9242   93.0127   14.6705 S.O2    1  UNL1        0.0105
     32 O          65.6310   93.1136   15.4238 O.2     1  UNL1       -0.1686
     33 O          68.2173   92.9118   13.9172 O.2     1  UNL1       -0.1686
@<TRIPOS>BOND
     1    30    31    1
     2    31    32    2
     3    31    33    2
     4    31    24    1
     5    24    25   ar
     6    25    26   ar
     7    26    27   ar
     8    27    28   ar
     9    28    18    1
    10    18    19   ar
    11    19    20   ar
    12    20    21   ar
    13    21    22   ar
    14    22     1    1
    15     1     2    1
    16     2     3    1
    17     3     4    1
    18     3     5    1
    19     5     9    1
    20     9    10   ar
    21    10    11   ar
    22    11    12    1
    23    11    13   ar
    24    13    14    1
    25    13    15   ar
    26    15    16   ar
    27    16    17    1
    28     5     6    1
    29    22    23   ar
    30    28    29   ar
    31    29    24   ar
    32    23    18   ar
    33     6     1    1
    34    16     9   ar
    35     4     7    1
    36     4     8    1
@<TRIPOS>MOLECULE
*****
 33 36 0 0 0
SMALL
GASTEIGER

@<TRIPOS>ATOM
      1 N          63.2170   86.5901   12.7129 N.pl3   1  UNL1       -0.2764
      2 C          63.9125   86.1223   13.9568 C.3     1  UNL1        0.1094
      3 C          63.9728   84.6240   13.9187 C.3     1  UNL1        0.0767
      4 N          64.5841   83.7394   14.9645 N.3     1  UNL1       -0.3205
      5 C          63.3146   84.1658   12.6512 C.3     1  UNL1        0.0603
      6 C          62.8474   85.3809   11.9059 C.3     1  UNL1        0.0994
      7 H          64.9596   84.3141   15.7189 H       1  UNL1        0.1189
      8 H          65.3365   83.1907   14.5483 H       1  UNL1        0.1189
      9 C          63.1520   82.7423   12.2068 C.ar    1  UNL1        0.0103
     10 C          62.5823   81.7231   13.1484 C.ar    1  UNL1        0.0300
     11 C          62.4198   80.2997   12.7041 C.ar    1  UNL1        0.1672
     12 F          61.8501   79.2805   13.6457 F       1  UNL1       -0.2018
     13 C          62.8269   79.8956   11.3181 C.ar    1  UNL1        0.1696
     14 F          62.6643   78.4721   10.8737 F       1  UNL1       -0.2017
     15 C          63.3965   80.9148   10.3765 C.ar    1  UNL1        0.0612
     16 C          63.5591   82.3382   10.8209 C.ar    1  UNL1        0.1386
     17 F          64.1288   83.3574    9.8793 F       1  UNL1       -0.2044
     18 C          63.6393   90.5187   12.3416 C.ar    1  UNL1        0.1669
     19 N          62.3850   90.8696   11.5977 N.ar    1  UNL1       -0.2047
     20 C          61.4080   89.7940   11.2254 C.ar    1  UNL1        0.2027
     21 N          61.6853   88.3675   11.5972 N.ar    1  UNL1       -0.1913
     22 C          62.9397   88.0166   12.3412 C.ar    1  UNL1        0.2230
     23 N          63.9167   89.0922   12.7134 N.ar    1  UNL1       -0.1945
     24 C          65.9977   93.6992   12.0727 C.ar    1  UNL1        0.1058
     25 C          66.5705   93.7454   13.4583 C.ar    1  UNL1        0.0183
     26 C          66.1662   92.7159   14.4716 C.ar    1  UNL1        0.0014
     27 C          65.1892   91.6404   14.0994 C.ar    1  UNL1        0.0031
     28 C          64.6164   91.5943   12.7139 C.ar    1  UNL1        0.0372
     29 C          65.0207   92.6237   11.7006 C.ar    1  UNL1        0.0214
     30 C          66.8062   95.7581   10.0461 C.3     1  UNL1        0.1816
     31 S          66.4020   94.7286   11.0594 S.O2    1  UNL1        0.0105
     32 O          66.6787   93.6407   10.0646 O.2     1  UNL1       -0.1686
     33 O          66.1253   95.8166   12.0542 O.2     1  UNL1       -0.1686
@<TRIPOS>BOND
     1    30    31    1
     2    31    32    2
     3    31    33    2
     4    31    24    1
     5    24    25   ar
     6    25    26   ar
     7    26    27   ar
     8    27    28   ar
     9    28    18    1
    10    18    19   ar
    11    19    20   ar
    12    20    21   ar
    13    21    22   ar
    14    22     1    1
    15     1     2    1
    16     2     3    1
    17     3     4    1
    18     3     5    1
    19     5     9    1
    20     9    10   ar
    21    10    11   ar
    22    11    12    1
    23    11    13   ar
    24    13    14    1
    25    13    15   ar
    26    15    16   ar
    27    16    17    1
    28     5     6    1
    29    22    23   ar
    30    28    29   ar
    31    29    24   ar
    32    23    18   ar
    33     6     1    1
    34    16     9   ar
    35     4     7    1
    36     4     8    1
@<TRIPOS>MOLECULE
*****
 33 36 0 0 0
SMALL
GASTEIGER

@<TRIPOS>ATOM
      1 N          63.5257   90.1665   12.0996 N.pl3   1  UNL1       -0.2764
      2 C          63.6874   91.4276   11.3037 C.3     1  UNL1        0.1094
      3 C          64.7799   92.2380   11.9359 C.3     1  UNL1        0.0767
      4 N          65.2724   93.5740   11.4643 N.3     1  UNL1       -0.3205
      5 C          65.2934   91.4777   13.1227 C.3     1  UNL1        0.0603
      6 C          64.5182   90.1975   13.2238 C.3     1  UNL1        0.0994
      7 H          64.7476   93.8569   10.6366 H       1  UNL1        0.1189
      8 H          66.2635   93.5085   11.2325 H       1  UNL1        0.1189
      9 C          66.3896   91.9200   14.0461 C.ar    1  UNL1        0.0103
     10 C          67.8085   91.9595   13.5612 C.ar    1  UNL1        0.0300
     11 C          68.9047   92.4017   14.4846 C.ar    1  UNL1        0.1672
     12 F          70.3235   92.4412   13.9997 F       1  UNL1       -0.2018
     13 C          68.5818   92.8045   15.8930 C.ar    1  UNL1        0.1696
     14 F          69.6780   93.2468   16.8166 F       1  UNL1       -0.2017
     15 C          67.1630   92.7650   16.3779 C.ar    1  UNL1        0.0612
     16 C          66.0668   92.3227   15.4545 C.ar    1  UNL1        0.1386
     17 F          64.6479   92.2833   15.9394 F       1  UNL1       -0.2044
     18 C          62.0451   86.5608   11.3531 C.ar    1  UNL1        0.1669
     19 N          60.5801   86.8693   11.2619 N.ar    1  UNL1       -0.2047
     20 C          60.0968   88.2769   11.4499 C.ar    1  UNL1        0.2027
     21 N          61.0786   89.3759   11.7291 N.ar    1  UNL1       -0.1913
     22 C          62.5438   89.0674   11.8204 C.ar    1  UNL1        0.2230
     23 N          63.0270   87.6599   11.6324 N.ar    1  UNL1       -0.1945
     24 C          62.7692   82.7207   12.0451 C.ar    1  UNL1        0.1058
     25 C          63.4949   82.3383   10.7893 C.ar    1  UNL1        0.0183
     26 C          63.7373   83.3634    9.7214 C.ar    1  UNL1        0.0014
     27 C          63.2541   84.7709    9.9093 C.ar    1  UNL1        0.0031
     28 C          62.5284   85.1533   11.1652 C.ar    1  UNL1        0.0372
     29 C          62.2860   84.1282   12.2330 C.ar    1  UNL1        0.0214
     30 C          62.2843   80.6704   14.1808 C.3     1  UNL1        0.1816
     31 S          62.5267   81.6955   13.1129 S.O2    1  UNL1        0.0105
     32 O          62.2302   82.7893   14.0956 O.2     1  UNL1       -0.1686
     33 O          62.8233   80.6017   12.1303 O.2     1  UNL1       -0.1686
@<TRIPOS>BOND
     1    30    31    1
     2    31    32    2
     3    31    33    2
     4    31    24    1
     5    24    25   ar
     6    25    26   ar
     7    26    27   ar
     8    27    28   ar
     9    28    18    1
    10    18    19   ar
    11    19    20   ar
    12    20    21   ar
    13    21    22   ar
    14    22     1    1
    15     1     2    1
    16     2     3    1
    17     3     4    1
    18     3     5    1
    19     5     9    1
    20     9    10   ar
    21    10    11   ar
    22    11    12    1
    23    11    13   ar
    24    13    14    1
    25    13    15   ar
    26    15    16   ar
    27    16    17    1
    28     5     6    1
    29    22    23   ar
    30    28    29   ar
    31    29    24   ar
    32    23    18   ar
    33     6     1    1
    34    16     9   ar
    35     4     7    1
    36     4     8    1
@<TRIPOS>MOLECULE
*****
 33 36 0 0 0
SMALL
GASTEIGER

@<TRIPOS>ATOM
      1 N          63.2779   86.8861   12.8349 N.pl3   1  UNL1       -0.2764
      2 C          64.1344   86.5377   14.0160 C.3     1  UNL1        0.1094
      3 C          64.1504   85.0440   14.1526 C.3     1  UNL1        0.0767
      4 N          64.8842   84.2623   15.2016 N.3     1  UNL1       -0.3205
      5 C          63.3038   84.4692   13.0558 C.3     1  UNL1        0.0603
      6 C          62.7645   85.6077   12.2415 C.3     1  UNL1        0.0994
      7 H          65.3797   84.9048   15.8199 H       1  UNL1        0.1189
      8 H          65.5541   83.6372   14.7534 H       1  UNL1        0.1189
      9 C          63.0423   83.0118   12.8156 C.ar    1  UNL1        0.0103
     10 C          63.3162   82.4129   11.4679 C.ar    1  UNL1        0.0300
     11 C          63.0547   80.9555   11.2277 C.ar    1  UNL1        0.1672
     12 F          63.3286   80.3566    9.8801 F       1  UNL1       -0.2018
     13 C          62.5192   80.0972   12.3352 C.ar    1  UNL1        0.1696
     14 F          62.2577   78.6397   12.0950 F       1  UNL1       -0.2017
     15 C          62.2453   80.6961   13.6828 C.ar    1  UNL1        0.0612
     16 C          62.5068   82.1534   13.9230 C.ar    1  UNL1        0.1386
     17 F          62.2329   82.7524   15.2707 F       1  UNL1       -0.2044
     18 C          63.6753   90.7617   12.0788 C.ar    1  UNL1        0.1669
     19 N          62.4022   91.0375   11.3353 N.ar    1  UNL1       -0.2047
     20 C          61.4208   89.9294   11.0915 C.ar    1  UNL1        0.2027
     21 N          61.7127   88.5456   11.5914 N.ar    1  UNL1       -0.1913
     22 C          62.9860   88.2699   12.3350 C.ar    1  UNL1        0.2230
     23 N          63.9672   89.3779   12.5787 N.ar    1  UNL1       -0.1945
     24 C          66.0608   93.8673   11.4350 C.ar    1  UNL1        0.1058
     25 C          66.6192   94.0856   12.8099 C.ar    1  UNL1        0.0183
     26 C          66.1964   93.1960   13.9411 C.ar    1  UNL1        0.0014
     27 C          65.2152   92.0880   13.6975 C.ar    1  UNL1        0.0031
     28 C          64.6567   91.8697   12.3226 C.ar    1  UNL1        0.0372
     29 C          65.0795   92.7594   11.1913 C.ar    1  UNL1        0.0214
     30 C          66.9064   95.6467    9.1725 C.3     1  UNL1        0.1816
     31 S          66.4836   94.7570   10.3037 S.O2    1  UNL1        0.0105
     32 O          65.2230   95.5548   10.4600 O.2     1  UNL1       -0.1686
     33 O          67.7442   93.9592   10.1474 O.2     1  UNL1       -0.1686
@<TRIPOS>BOND
     1    30    31    1
     2    31    32    2
     3    31    33    2
     4    31    24    1
     5    24    25   ar
     6    25    26   ar
     7    26    27   ar
     8    27    28   ar
     9    28    18    1
    10    18    19   ar
    11    19    20   ar
    12    20    21   ar
    13    21    22   ar
    14    22     1    1
    15     1     2    1
    16     2     3    1
    17     3     4    1
    18     3     5    1
    19     5     9    1
    20     9    10   ar
    21    10    11   ar
    22    11    12    1
    23    11    13   ar
    24    13    14    1
    25    13    15   ar
    26    15    16   ar
    27    16    17    1
    28     5     6    1
    29    22    23   ar
    30    28    29   ar
    31    29    24   ar
    32    23    18   ar
    33     6     1    1
    34    16     9   ar
    35     4     7    1
    36     4     8    1
@<TRIPOS>MOLECULE
*****
 33 36 0 0 0
SMALL
GASTEIGER

@<TRIPOS>ATOM
      1 N          65.5031   90.7688   14.3742 N.pl3   1  UNL1       -0.2764
      2 C          66.7666   91.3136   14.9716 C.3     1  UNL1        0.1094
      3 C          67.3401   92.3129   14.0111 C.3     1  UNL1        0.0767
      4 N          68.6012   93.1011   14.2073 N.3     1  UNL1       -0.3205
      5 C          66.4311   92.3857   12.8201 C.3     1  UNL1        0.0603
      6 C          65.2958   91.4314   13.0445 C.3     1  UNL1        0.0994
      7 H          69.0199   92.8549   15.1042 H       1  UNL1        0.1189
      8 H          68.3846   94.0978   14.1953 H       1  UNL1        0.1189
      9 C          66.6236   93.2594   11.6162 C.ar    1  UNL1        0.0103
     10 C          65.9827   94.6145   11.5626 C.ar    1  UNL1        0.0300
     11 C          66.1752   95.4882   10.3586 C.ar    1  UNL1        0.1672
     12 F          65.5343   96.8433   10.3051 F       1  UNL1       -0.2018
     13 C          67.0087   95.0067    9.2082 C.ar    1  UNL1        0.1696
     14 F          67.2012   95.8804    8.0041 F       1  UNL1       -0.2017
     15 C          67.6495   93.6516    9.2617 C.ar    1  UNL1        0.0612
     16 C          67.4570   92.7779   10.4657 C.ar    1  UNL1        0.1386
     17 F          68.0980   91.4228   10.5192 F       1  UNL1       -0.2044
     18 C          63.7716   87.2866   15.1656 C.ar    1  UNL1        0.1669
     19 N          62.8080   87.6875   16.2429 N.ar    1  UNL1       -0.2047
     20 C          62.7427   89.1156   16.6974 C.ar    1  UNL1        0.2027
     21 N          63.6411   90.1427   16.0745 N.ar    1  UNL1       -0.1913
     22 C          64.6047   89.7417   14.9971 C.ar    1  UNL1        0.2230
     23 N          64.6700   88.3137   14.5427 N.ar    1  UNL1       -0.1945
     24 C          63.8401   84.1057   12.7935 C.ar    1  UNL1        0.1058
     25 C          63.9673   83.0027   13.8020 C.ar    1  UNL1        0.0183
     26 C          64.0293   83.3276   15.2651 C.ar    1  UNL1        0.0014
     27 C          63.9640   84.7556   15.7196 C.ar    1  UNL1        0.0031
     28 C          63.8368   85.8586   14.7111 C.ar    1  UNL1        0.0372
     29 C          63.7749   85.5336   13.2480 C.ar    1  UNL1        0.0214
     30 C          63.7163   83.4557    9.8673 C.3     1  UNL1        0.1816
     31 S          63.7782   83.7807   11.3304 S.O2    1  UNL1        0.0105
     32 O          62.7310   84.8376   11.1400 O.2     1  UNL1       -0.1686
     33 O          64.8254   82.7238   11.5208 O.2     1  UNL1       -0.1686
@<TRIPOS>BOND
     1    30    31    1
     2    31    32    2
     3    31    33    2
     4    31    24    1
     5    24    25   ar
     6    25    26   ar
     7    26    27   ar
     8    27    28   ar
     9    28    18    1
    10    18    19   ar
    11    19    20   ar
    12    20    21   ar
    13    21    22   ar
    14    22     1    1
    15     1     2    1
    16     2     3    1
    17     3     4    1
    18     3     5    1
    19     5     9    1
    20     9    10   ar
    21    10    11   ar
    22    11    12    1
    23    11    13   ar
    24    13    14    1
    25    13    15   ar
    26    15    16   ar
    27    16    17    1
    28     5     6    1
    29    22    23   ar
    30    28    29   ar
    31    29    24   ar
    32    23    18   ar
    33     6     1    1
    34    16     9   ar
    35     4     7    1
    36     4     8    1
@<TRIPOS>MOLECULE
*****
 33 36 0 0 0
SMALL
GASTEIGER

@<TRIPOS>ATOM
      1 N          63.1731   89.9039   11.2712 N.pl3   1  UNL1       -0.2764
      2 C          63.3653   91.1444   10.4501 C.3     1  UNL1        0.1094
      3 C          64.2969   92.0538   11.1951 C.3     1  UNL1        0.0767
      4 N          64.7631   93.4045   10.7387 N.3     1  UNL1       -0.3205
      5 C          64.6806   91.3754   12.4767 C.3     1  UNL1        0.0603
      6 C          63.9860   90.0467   12.5237 C.3     1  UNL1        0.0994
      7 H          64.3476   93.6191    9.8322 H       1  UNL1        0.1189
      8 H          65.7796   93.4030   10.6549 H       1  UNL1        0.1189
      9 C          65.5977   91.9285   13.5269 C.ar    1  UNL1        0.0103
     10 C          65.1144   92.0841   14.9384 C.ar    1  UNL1        0.0300
     11 C          66.0315   92.6372   15.9885 C.ar    1  UNL1        0.1672
     12 F          65.5481   92.7929   17.3999 F       1  UNL1       -0.2018
     13 C          67.4321   93.0346   15.6272 C.ar    1  UNL1        0.1696
     14 F          68.3493   93.5877   16.6774 F       1  UNL1       -0.2017
     15 C          67.9154   92.8790   14.2159 C.ar    1  UNL1        0.0612
     16 C          66.9983   92.3259   13.1657 C.ar    1  UNL1        0.1386
     17 F          67.4817   92.1702   11.7542 F       1  UNL1       -0.2044
     18 C          62.0169   86.1604   10.6397 C.ar    1  UNL1        0.1669
     19 N          60.6083   86.3741   10.1704 N.ar    1  UNL1       -0.2047
     20 C          60.0547   87.7644   10.0680 C.ar    1  UNL1        0.2027
     21 N          60.9096   88.9411   10.4349 N.ar    1  UNL1       -0.1913
     22 C          62.3182   88.7273   10.9043 C.ar    1  UNL1        0.2230
     23 N          62.8718   87.3370   11.0067 N.ar    1  UNL1       -0.1945
     24 C          62.7332   82.4996   11.9946 C.ar    1  UNL1        0.1058
     25 C          63.6778   81.9894   10.9470 C.ar    1  UNL1        0.0183
     26 C          64.0687   82.8695    9.7970 C.ar    1  UNL1        0.0014
     27 C          63.5151   84.2598    9.6945 C.ar    1  UNL1        0.0031
     28 C          62.5705   84.7700   10.7421 C.ar    1  UNL1        0.0372
     29 C          62.1796   83.8899   11.8922 C.ar    1  UNL1        0.0214
     30 C          61.9514   80.7394   14.2947 C.3     1  UNL1        0.1816
     31 S          62.3423   81.6195   13.1446 S.O2    1  UNL1        0.0105
     32 O          62.6131   80.4049   12.3072 O.2     1  UNL1       -0.1686
     33 O          62.0715   82.8341   13.9821 O.2     1  UNL1       -0.1686
@<TRIPOS>BOND
     1    30    31    1
     2    31    32    2
     3    31    33    2
     4    31    24    1
     5    24    25   ar
     6    25    26   ar
     7    26    27   ar
     8    27    28   ar
     9    28    18    1
    10    18    19   ar
    11    19    20   ar
    12    20    21   ar
    13    21    22   ar
    14    22     1    1
    15     1     2    1
    16     2     3    1
    17     3     4    1
    18     3     5    1
    19     5     9    1
    20     9    10   ar
    21    10    11   ar
    22    11    12    1
    23    11    13   ar
    24    13    14    1
    25    13    15   ar
    26    15    16   ar
    27    16    17    1
    28     5     6    1
    29    22    23   ar
    30    28    29   ar
    31    29    24   ar
    32    23    18   ar
    33     6     1    1
    34    16     9   ar
    35     4     7    1
    36     4     8    1
@<TRIPOS>MOLECULE
*****
 33 36 0 0 0
SMALL
GASTEIGER

@<TRIPOS>ATOM
      1 N          63.4862   85.9439   13.2776 N.pl3   1  UNL1       -0.2764
      2 C          63.9164   85.2817   14.5528 C.3     1  UNL1        0.1094
      3 C          63.8543   83.7970   14.3482 C.3     1  UNL1        0.0767
      4 N          64.2001   82.7514   15.3665 N.3     1  UNL1       -0.3205
      5 C          63.3856   83.5416   12.9463 C.3     1  UNL1        0.0603
      6 C          63.1581   84.8684   12.2847 C.3     1  UNL1        0.0994
      7 H          64.4888   83.2038   16.2339 H       1  UNL1        0.1189
      8 H          64.9630   82.1730   15.0144 H       1  UNL1        0.1189
      9 C          63.1805   82.1957   12.3167 C.ar    1  UNL1        0.0103
     10 C          62.6531   81.0562   13.1374 C.ar    1  UNL1        0.0300
     11 C          62.4480   79.7103   12.5078 C.ar    1  UNL1        0.1672
     12 F          61.9207   78.5709   13.3285 F       1  UNL1       -0.2018
     13 C          62.7702   79.5040   11.0574 C.ar    1  UNL1        0.1696
     14 F          62.5650   78.1580   10.4277 F       1  UNL1       -0.2017
     15 C          63.2975   80.6434   10.2367 C.ar    1  UNL1        0.0612
     16 C          63.5026   81.9893   10.8663 C.ar    1  UNL1        0.1386
     17 F          64.0300   83.1287   10.0456 F       1  UNL1       -0.2044
     18 C          64.0016   89.8530   13.7280 C.ar    1  UNL1        0.1669
     19 N          63.2254   90.3781   12.5568 N.ar    1  UNL1       -0.2047
     20 C          62.5360   89.4251   11.6258 C.ar    1  UNL1        0.2027
     21 N          62.6230   87.9470   11.8661 N.ar    1  UNL1       -0.1913
     22 C          63.3992   87.4220   13.0373 C.ar    1  UNL1        0.2230
     23 N          64.0885   88.3749   13.9682 N.ar    1  UNL1       -0.1945
     24 C          66.8076   92.1483   15.3428 C.ar    1  UNL1        0.1058
     25 C          66.0696   92.7119   16.5209 C.ar    1  UNL1        0.0183
     26 C          64.6423   92.3224   16.7680 C.ar    1  UNL1        0.0014
     27 C          63.9529   91.3695   15.8370 C.ar    1  UNL1        0.0031
     28 C          64.6909   90.8060   14.6590 C.ar    1  UNL1        0.0372
     29 C          66.1183   91.1954   14.4119 C.ar    1  UNL1        0.0214
     30 C          69.6623   92.9272   14.8487 C.3     1  UNL1        0.1816
     31 S          68.2350   92.5378   15.0958 S.O2    1  UNL1        0.0105
     32 O          68.5887   92.1289   16.4949 O.2     1  UNL1       -0.1686
     33 O          67.8812   92.9466   13.6966 O.2     1  UNL1       -0.1686
@<TRIPOS>BOND
     1    30    31    1
     2    31    32    2
     3    31    33    2
     4    31    24    1
     5    24    25   ar
     6    25    26   ar
     7    26    27   ar
     8    27    28   ar
     9    28    18    1
    10    18    19   ar
    11    19    20   ar
    12    20    21   ar
    13    21    22   ar
    14    22     1    1
    15     1     2    1
    16     2     3    1
    17     3     4    1
    18     3     5    1
    19     5     9    1
    20     9    10   ar
    21    10    11   ar
    22    11    12    1
    23    11    13   ar
    24    13    14    1
    25    13    15   ar
    26    15    16   ar
    27    16    17    1
    28     5     6    1
    29    22    23   ar
    30    28    29   ar
    31    29    24   ar
    32    23    18   ar
    33     6     1    1
    34    16     9   ar
    35     4     7    1
    36     4     8    1
@<TRIPOS>MOLECULE
*****
 33 36 0 0 0
SMALL
GASTEIGER

@<TRIPOS>ATOM
      1 N          62.3687   86.5460   11.1070 N.pl3   1  UNL1       -0.2764
      2 C          62.9424   85.9195    9.8707 C.3     1  UNL1        0.1094
      3 C          63.0872   84.4477   10.1213 C.3     1  UNL1        0.0767
      4 N          63.6222   83.4366    9.1511 N.3     1  UNL1       -0.3205
      5 C          62.6030   84.1645   11.5125 C.3     1  UNL1        0.0603
      6 C          62.1589   85.4613   12.1217 C.3     1  UNL1        0.0994
      7 H          63.8780   83.9028    8.2806 H       1  UNL1        0.1189
      8 H          62.9070   82.7341    8.9631 H       1  UNL1        0.1189
      9 C          62.5688   82.8205   12.1777 C.ar    1  UNL1        0.0103
     10 C          62.6830   81.5725   11.3534 C.ar    1  UNL1        0.0300
     11 C          62.6488   80.2285   12.0186 C.ar    1  UNL1        0.1672
     12 F          62.7630   78.9806   11.1943 F       1  UNL1       -0.2018
     13 C          62.5005   80.1326   13.5082 C.ar    1  UNL1        0.1696
     14 F          62.4663   78.7886   14.1735 F       1  UNL1       -0.2017
     15 C          62.3863   81.3806   14.3324 C.ar    1  UNL1        0.0612
     16 C          62.4204   82.7245   13.6672 C.ar    1  UNL1        0.1386
     17 F          62.3062   83.9725   14.4916 F       1  UNL1       -0.2044
     18 C          62.8653   90.4462   11.6474 C.ar    1  UNL1        0.1669
     19 N          61.4400   90.9126   11.6726 N.ar    1  UNL1       -0.2047
     20 C          60.3241   89.9236   11.5093 C.ar    1  UNL1        0.2027
     21 N          60.6336   88.4680   11.3208 N.ar    1  UNL1       -0.1913
     22 C          62.0591   88.0015   11.2956 C.ar    1  UNL1        0.2230
     23 N          63.1749   88.9906   11.4588 N.ar    1  UNL1       -0.1945
     24 C          65.7735   92.5790   13.3038 C.ar    1  UNL1        0.1058
     25 C          66.2129   93.4133   12.1373 C.ar    1  UNL1        0.0183
     26 C          65.5364   93.2586   10.8074 C.ar    1  UNL1        0.0014
     27 C          64.4206   92.2695   10.6441 C.ar    1  UNL1        0.0031
     28 C          63.9812   91.4353   11.8106 C.ar    1  UNL1        0.0372
     29 C          64.6576   91.5900   13.1405 C.ar    1  UNL1        0.0214
     30 C          67.1263   92.8885   15.9635 C.3     1  UNL1        0.1816
     31 S          66.4499   92.7337   14.6337 S.O2    1  UNL1        0.0105
     32 O          67.7471   93.0266   13.9398 O.2     1  UNL1       -0.1686
     33 O          65.1527   92.4408   15.3276 O.2     1  UNL1       -0.1686
@<TRIPOS>BOND
     1    30    31    1
     2    31    32    2
     3    31    33    2
     4    31    24    1
     5    24    25   ar
     6    25    26   ar
     7    26    27   ar
     8    27    28   ar
     9    28    18    1
    10    18    19   ar
    11    19    20   ar
    12    20    21   ar
    13    21    22   ar
    14    22     1    1
    15     1     2    1
    16     2     3    1
    17     3     4    1
    18     3     5    1
    19     5     9    1
    20     9    10   ar
    21    10    11   ar
    22    11    12    1
    23    11    13   ar
    24    13    14    1
    25    13    15   ar
    26    15    16   ar
    27    16    17    1
    28     5     6    1
    29    22    23   ar
    30    28    29   ar
    31    29    24   ar
    32    23    18   ar
    33     6     1    1
    34    16     9   ar
    35     4     7    1
    36     4     8    1
@<TRIPOS>MOLECULE
*****
 33 36 0 0 0
SMALL
GASTEIGER

@<TRIPOS>ATOM
      1 N          63.7159   88.8535   15.7479 N.pl3   1  UNL1       -0.2764
      2 C          63.4297   89.9444   16.7368 C.3     1  UNL1        0.1094
      3 C          63.9378   91.2343   16.1641 C.3     1  UNL1        0.0767
      4 N          63.8594   92.5813   16.8193 N.3     1  UNL1       -0.3205
      5 C          64.5380   90.9406   14.8212 C.3     1  UNL1        0.0603
      6 C          64.4008   89.4692   14.5639 C.3     1  UNL1        0.0994
      7 H          63.4025   92.4919   17.7268 H       1  UNL1        0.1189
      8 H          63.3216   93.2158   16.2289 H       1  UNL1        0.1189
      9 C          65.1652   91.9423   13.8976 C.ar    1  UNL1        0.0103
     10 C          64.7898   91.9617   12.4455 C.ar    1  UNL1        0.0300
     11 C          65.4170   92.9635   11.5219 C.ar    1  UNL1        0.1672
     12 F          65.0416   92.9828   10.0698 F       1  UNL1       -0.2018
     13 C          66.4198   93.9459   12.0506 C.ar    1  UNL1        0.1696
     14 F          67.0471   94.9478   11.1270 F       1  UNL1       -0.2017
     15 C          66.7952   93.9265   13.5026 C.ar    1  UNL1        0.0612
     16 C          66.1679   92.9248   14.4262 C.ar    1  UNL1        0.1386
     17 F          66.5434   92.9054   15.8783 F       1  UNL1       -0.2044
     18 C          63.2517   84.9952   14.9429 C.ar    1  UNL1        0.1669
     19 N          62.6982   84.4984   16.2455 N.ar    1  UNL1       -0.2047
     20 C          62.4838   85.4533   17.3823 C.ar    1  UNL1        0.2027
     21 N          62.8230   86.9050   17.2164 N.ar    1  UNL1       -0.1913
     22 C          63.3766   87.4018   15.9137 C.ar    1  UNL1        0.2230
     23 N          63.5910   86.4468   14.7770 N.ar    1  UNL1       -0.1945
     24 C          63.2034   81.6675   12.7808 C.ar    1  UNL1        0.1058
     25 C          63.8947   82.1304   11.5327 C.ar    1  UNL1        0.0183
     26 C          64.3717   83.5481   11.4213 C.ar    1  UNL1        0.0014
     27 C          64.1574   84.5031   12.5580 C.ar    1  UNL1        0.0031
     28 C          63.4661   84.0402   13.8061 C.ar    1  UNL1        0.0372
     29 C          62.9891   82.6224   13.9175 C.ar    1  UNL1        0.0214
     30 C          62.2494   78.8320   13.0036 C.3     1  UNL1        0.1816
     31 S          62.7264   80.2498   12.8922 S.O2    1  UNL1        0.0105
     32 O          62.7248   80.3678   14.3876 O.2     1  UNL1       -0.1686
     33 O          62.7280   80.1317   11.3969 O.2     1  UNL1       -0.1686
@<TRIPOS>BOND
     1    30    31    1
     2    31    32    2
     3    31    33    2
     4    31    24    1
     5    24    25   ar
     6    25    26   ar
     7    26    27   ar
     8    27    28   ar
     9    28    18    1
    10    18    19   ar
    11    19    20   ar
    12    20    21   ar
    13    21    22   ar
    14    22     1    1
    15     1     2    1
    16     2     3    1
    17     3     4    1
    18     3     5    1
    19     5     9    1
    20     9    10   ar
    21    10    11   ar
    22    11    12    1
    23    11    13   ar
    24    13    14    1
    25    13    15   ar
    26    15    16   ar
    27    16    17    1
    28     5     6    1
    29    22    23   ar
    30    28    29   ar
    31    29    24   ar
    32    23    18   ar
    33     6     1    1
    34    16     9   ar
    35     4     7    1
    36     4     8    1
