@<TRIPOS>MOLECULE
*****
 42 46 0 0 0
SMALL
GASTEIGER

@<TRIPOS>ATOM
      1 C          63.1221   88.5337   13.0449 C.3     1  UNL1        0.1243
      2 N          64.0239   88.4671   14.2417 N.3     1  UNL1       -0.2823
      3 C          64.7738   87.2861   14.7830 C.3     1  UNL1        0.1560
      4 C          64.8071   85.8801   14.2612 C.2     1  UNL1        0.2457
      5 O          65.7011   85.0603   15.1437 O.2     1  UNL1       -0.2730
      6 N          64.0987   85.3080   13.0693 N.am    1  UNL1       -0.2533
      7 C          63.1820   86.0004   12.1047 C.ar    1  UNL1        0.0518
      8 C          62.6842   85.0580   11.0492 C.ar    1  UNL1        0.0146
      9 C          61.7517   85.5513    9.9828 C.ar    1  UNL1        0.0013
     10 C          61.3171   86.9869    9.9720 C.ar    1  UNL1       -0.0002
     11 C          61.8150   87.9293   11.0275 C.ar    1  UNL1       -0.0014
     12 C          62.7474   87.4360   12.0938 C.ar    1  UNL1        0.0118
     13 H          63.4406   88.7775   15.0188 H       1  UNL1        0.1243
     14 C          62.2055   89.2262   12.0803 C.ar    1  UNL1       -0.0019
     15 C          62.7279   89.6968   10.7553 C.ar    1  UNL1       -0.0026
     16 C          61.8114   90.3892    9.7908 C.ar    1  UNL1       -0.0003
     17 C          60.3723   90.6110   10.1511 C.ar    1  UNL1       -0.0000
     18 C          59.8498   90.1403   11.4762 C.ar    1  UNL1       -0.0003
     19 C          60.7664   89.4479   12.4407 C.ar    1  UNL1       -0.0026
     20 C          63.0889   89.9397   13.5667 C.3     1  UNL1        0.2224
     21 C          62.8143   90.1943   15.0192 C.2     1  UNL1        0.0919
     22 O          63.5388   91.2937   15.7379 O.co2   1  UNL1       -0.5455
     23 O          61.8153   89.3497   15.7529 O.co2   1  UNL1       -0.5455
     24 O          63.3301   91.0910   12.6359 O.3     1  UNL1       -0.4716
     25 C          68.0712   91.9887   14.5636 C.3     1  UNL1        0.0311
     26 C          67.0839   92.0976   13.4397 C.ar    1  UNL1       -0.0192
     27 C          67.4797   92.7644   12.1556 C.ar    1  UNL1       -0.0083
     28 C          66.4924   92.8733   11.0316 C.ar    1  UNL1       -0.0192
     29 C          66.8882   93.5401    9.7475 C.3     1  UNL1        0.0311
     30 C          65.1092   92.3155   11.1917 C.ar    1  UNL1        0.0326
     31 C          64.7134   91.6488   12.4758 C.ar    1  UNL1        0.1384
     32 C          65.7007   91.5399   13.5998 C.ar    1  UNL1        0.0326
     33 C          64.3386   83.8507   12.8072 C.3     1  UNL1        0.1292
     34 C          63.2873   82.8416   13.1631 C.ar    1  UNL1        0.0531
     35 C          62.5039   82.9909   14.4334 C.ar    1  UNL1        0.1422
     36 F          62.6407   84.0800   15.4557 F       1  UNL1       -0.2043
     37 C          61.4526   81.9819   14.7893 C.ar    1  UNL1        0.0591
     38 C          61.1847   80.8236   13.8747 C.ar    1  UNL1        0.1446
     39 F          60.1334   79.8145   14.2305 F       1  UNL1       -0.2040
     40 C          61.9681   80.6743   12.6043 C.ar    1  UNL1        0.0591
     41 C          63.0194   81.6833   12.2484 C.ar    1  UNL1        0.1422
     42 F          63.8028   81.5340   10.9780 F       1  UNL1       -0.2043
@<TRIPOS>UNITY_ATOM_ATTR
22 1
charge -1
@<TRIPOS>BOND
     1    25    26    1
     2    26    27   ar
     3    27    28   ar
     4    28    29    1
     5    28    30   ar
     6    30    31   ar
     7    31    24    1
     8    20    24    1
     9    20    21    1
    10    21    22   ar
    11    21    23   ar
    12    20     1    1
    13     1    14    1
    14    14    15   ar
    15    15    16   ar
    16    16    17   ar
    17    17    18   ar
    18    18    19   ar
    19     1     2    1
    20     2     3    1
    21     3     4    1
    22     4     5    2
    23     4     6   am
    24     6    33    1
    25    33    34    1
    26    34    35   ar
    27    35    36    1
    28    35    37   ar
    29    37    38   ar
    30    38    39    1
    31    38    40   ar
    32    40    41   ar
    33    41    42    1
    34     6     7    1
    35     7     8   ar
    36     8     9   ar
    37     9    10   ar
    38    10    11   ar
    39    11    12   ar
    40    31    32   ar
    41    32    26   ar
    42    12     1    1
    43    19    14   ar
    44    41    34   ar
    45    12     7   ar
    46     2    13    1
@<TRIPOS>MOLECULE
*****
 42 46 0 0 0
SMALL
GASTEIGER

@<TRIPOS>ATOM
      1 C          63.1220   88.5344   13.0574 C.3     1  UNL1        0.1243
      2 N          64.0250   88.4644   14.2531 N.3     1  UNL1       -0.2823
      3 C          64.7747   87.2817   14.7909 C.3     1  UNL1        0.1560
      4 C          64.8066   85.8769   14.2658 C.2     1  UNL1        0.2457
      5 O          65.7009   85.0545   15.1455 O.2     1  UNL1       -0.2730
      6 N          64.0966   85.3080   13.0733 N.am    1  UNL1       -0.2533
      7 C          63.1794   86.0031   12.1112 C.ar    1  UNL1        0.0518
      8 C          62.6798   85.0636   11.0541 C.ar    1  UNL1        0.0146
      9 C          61.7466   85.5599    9.9898 C.ar    1  UNL1        0.0013
     10 C          61.3128   86.9959    9.9828 C.ar    1  UNL1       -0.0002
     11 C          61.8124   87.9354   11.0400 C.ar    1  UNL1       -0.0014
     12 C          62.7456   87.4391   12.1042 C.ar    1  UNL1        0.0118
     13 H          63.4427   88.7733   15.0315 H       1  UNL1        0.1243
     14 C          62.2048   89.2296   12.0954 C.ar    1  UNL1       -0.0019
     15 C          60.7663   89.4516   12.4579 C.ar    1  UNL1       -0.0026
     16 C          59.8491   90.1468   11.4959 C.ar    1  UNL1       -0.0003
     17 C          60.3704   90.6201   10.1715 C.ar    1  UNL1       -0.0000
     18 C          61.8090   90.3981    9.8089 C.ar    1  UNL1       -0.0003
     19 C          62.7261   89.7028   10.7709 C.ar    1  UNL1       -0.0026
     20 C          63.0902   89.9391   13.5825 C.3     1  UNL1        0.2224
     21 C          62.8175   90.1906   15.0359 C.2     1  UNL1        0.0919
     22 O          61.8308   89.3342   15.7729 O.co2   1  UNL1       -0.5455
     23 O          63.5315   91.2982   15.7523 O.co2   1  UNL1       -0.5455
     24 O          63.3310   91.0924   12.6541 O.3     1  UNL1       -0.4716
     25 C          66.8934   93.5267    9.7587 C.3     1  UNL1        0.0311
     26 C          66.4957   92.8665   11.0455 C.ar    1  UNL1       -0.0192
     27 C          67.4813   92.7633   12.1715 C.ar    1  UNL1       -0.0083
     28 C          67.0835   92.1031   13.4584 C.ar    1  UNL1       -0.0192
     29 C          68.0692   91.9999   14.5844 C.3     1  UNL1        0.0311
     30 C          65.7002   91.5462   13.6192 C.ar    1  UNL1        0.0326
     31 C          64.7145   91.6494   12.4932 C.ar    1  UNL1        0.1384
     32 C          65.1123   92.3096   11.2064 C.ar    1  UNL1        0.0326
     33 C          64.3353   83.8511   12.8076 C.3     1  UNL1        0.1292
     34 C          63.2842   82.8418   13.1632 C.ar    1  UNL1        0.0531
     35 C          62.5027   82.9891   14.4350 C.ar    1  UNL1        0.1422
     36 F          62.6414   84.0764   15.4590 F       1  UNL1       -0.2043
     37 C          61.4516   81.9798   14.7907 C.ar    1  UNL1        0.0591
     38 C          61.1820   80.8232   13.8744 C.ar    1  UNL1        0.1446
     39 F          60.1309   79.8138   14.2300 F       1  UNL1       -0.2040
     40 C          61.9634   80.6759   12.6026 C.ar    1  UNL1        0.0591
     41 C          63.0146   81.6851   12.2470 C.ar    1  UNL1        0.1422
     42 F          63.7961   81.5378   10.9751 F       1  UNL1       -0.2043
@<TRIPOS>UNITY_ATOM_ATTR
22 1
charge -1
@<TRIPOS>BOND
     1    25    26    1
     2    26    27   ar
     3    27    28   ar
     4    28    29    1
     5    28    30   ar
     6    30    31   ar
     7    31    24    1
     8    20    24    1
     9    20    21    1
    10    21    22   ar
    11    21    23   ar
    12    20     1    1
    13     1    14    1
    14    14    15   ar
    15    15    16   ar
    16    16    17   ar
    17    17    18   ar
    18    18    19   ar
    19     1     2    1
    20     2     3    1
    21     3     4    1
    22     4     5    2
    23     4     6   am
    24     6    33    1
    25    33    34    1
    26    34    35   ar
    27    35    36    1
    28    35    37   ar
    29    37    38   ar
    30    38    39    1
    31    38    40   ar
    32    40    41   ar
    33    41    42    1
    34     6     7    1
    35     7     8   ar
    36     8     9   ar
    37     9    10   ar
    38    10    11   ar
    39    11    12   ar
    40    31    32   ar
    41    32    26   ar
    42    12     1    1
    43    19    14   ar
    44    41    34   ar
    45    12     7   ar
    46     2    13    1
@<TRIPOS>MOLECULE
*****
 42 46 0 0 0
SMALL
GASTEIGER

@<TRIPOS>ATOM
      1 C          65.8128   92.0635   12.3038 C.3     1  UNL1        0.1243
      2 N          65.5664   92.1734   10.8283 N.3     1  UNL1       -0.2823
      3 C          64.4130   91.6410   10.0306 C.3     1  UNL1        0.1560
      4 C          63.2213   90.8673   10.5113 C.2     1  UNL1        0.2457
      5 O          62.3419   90.5585    9.3360 O.2     1  UNL1       -0.2730
      6 N          62.8886   90.4348   11.9086 N.am    1  UNL1       -0.2533
      7 C          63.6654   90.6693   13.1702 C.ar    1  UNL1        0.0518
      8 C          62.9764   90.0660   14.3581 C.ar    1  UNL1        0.0146
      9 C          63.5888   90.1875   15.7220 C.ar    1  UNL1        0.0013
     10 C          64.8903   90.9123   15.8979 C.ar    1  UNL1       -0.0002
     11 C          65.5793   91.5156   14.7099 C.ar    1  UNL1       -0.0014
     12 C          64.9669   91.3941   13.3461 C.ar    1  UNL1        0.0118
     13 H          66.3901   91.7514   10.3995 H       1  UNL1        0.1243
     14 C          66.5897   92.2980   13.5654 C.ar    1  UNL1       -0.0019
     15 C          67.4367   91.2011   14.1395 C.ar    1  UNL1       -0.0026
     16 C          68.2135   91.4355   15.4010 C.ar    1  UNL1       -0.0003
     17 C          68.1434   92.7668   16.0885 C.ar    1  UNL1       -0.0000
     18 C          67.2964   93.8638   15.5145 C.ar    1  UNL1       -0.0003
     19 C          66.5196   93.6292   14.2529 C.ar    1  UNL1       -0.0026
     20 C          67.0046   92.8372   11.8231 C.3     1  UNL1        0.2224
     21 C          68.1801   92.1149   11.2346 C.2     1  UNL1        0.0919
     22 O          69.2567   91.5791   12.1312 O.co2   1  UNL1       -0.5455
     23 O          68.2791   91.9284    9.7496 O.co2   1  UNL1       -0.5455
     24 O          67.0207   94.3332   11.9309 O.3     1  UNL1       -0.4716
     25 C          68.0632   96.8515    7.5068 C.3     1  UNL1        0.0311
     26 C          67.0844   96.4324    8.5634 C.ar    1  UNL1       -0.0192
     27 C          65.6481   96.8535    8.4647 C.ar    1  UNL1       -0.0083
     28 C          64.6693   96.4345    9.5213 C.ar    1  UNL1       -0.0192
     29 C          63.2330   96.8556    9.4225 C.3     1  UNL1        0.0311
     30 C          65.1269   95.5944   10.6766 C.ar    1  UNL1        0.0326
     31 C          66.5632   95.1734   10.7754 C.ar    1  UNL1        0.1384
     32 C          67.5420   95.5924    9.7188 C.ar    1  UNL1        0.0326
     33 C          61.6100   89.6663   12.0649 C.3     1  UNL1        0.1292
     34 C          61.2183   88.6452   11.0382 C.ar    1  UNL1        0.0531
     35 C          60.1437   88.9593   10.0400 C.ar    1  UNL1        0.1422
     36 F          59.3627   90.2348    9.9257 F       1  UNL1       -0.2043
     37 C          59.7520   87.9383    9.0133 C.ar    1  UNL1        0.0591
     38 C          60.4350   86.6031    8.9849 C.ar    1  UNL1        0.1446
     39 F          60.0433   85.5820    7.9582 F       1  UNL1       -0.2040
     40 C          61.5096   86.2890    9.9831 C.ar    1  UNL1        0.0591
     41 C          61.9013   87.3100   11.0098 C.ar    1  UNL1        0.1422
     42 F          62.9759   86.9959   12.0081 F       1  UNL1       -0.2043
@<TRIPOS>UNITY_ATOM_ATTR
22 1
charge -1
@<TRIPOS>BOND
     1    25    26    1
     2    26    27   ar
     3    27    28   ar
     4    28    29    1
     5    28    30   ar
     6    30    31   ar
     7    31    24    1
     8    20    24    1
     9    20    21    1
    10    21    22   ar
    11    21    23   ar
    12    20     1    1
    13     1    14    1
    14    14    15   ar
    15    15    16   ar
    16    16    17   ar
    17    17    18   ar
    18    18    19   ar
    19     1     2    1
    20     2     3    1
    21     3     4    1
    22     4     5    2
    23     4     6   am
    24     6    33    1
    25    33    34    1
    26    34    35   ar
    27    35    36    1
    28    35    37   ar
    29    37    38   ar
    30    38    39    1
    31    38    40   ar
    32    40    41   ar
    33    41    42    1
    34     6     7    1
    35     7     8   ar
    36     8     9   ar
    37     9    10   ar
    38    10    11   ar
    39    11    12   ar
    40    31    32   ar
    41    32    26   ar
    42    12     1    1
    43    19    14   ar
    44    41    34   ar
    45    12     7   ar
    46     2    13    1
@<TRIPOS>MOLECULE
*****
 42 46 0 0 0
SMALL
GASTEIGER

@<TRIPOS>ATOM
      1 C          61.6880   88.3517   11.2071 C.3     1  UNL1        0.1243
      2 N          62.1976   88.8202   12.5378 N.3     1  UNL1       -0.2823
      3 C          63.0726   88.0906   13.5136 C.3     1  UNL1        0.1560
      4 C          63.6539   86.7125   13.3998 C.2     1  UNL1        0.2457
      5 O          64.4613   86.4274   14.6314 O.2     1  UNL1       -0.2730
      6 N          63.5039   85.7236   12.2819 N.am    1  UNL1       -0.2533
      7 C          62.7355   85.8685   11.0018 C.ar    1  UNL1        0.0518
      8 C          62.8465   84.6365   10.1535 C.ar    1  UNL1        0.0146
      9 C          62.1494   84.5741    8.8268 C.ar    1  UNL1        0.0013
     10 C          61.3413   85.7438    8.3484 C.ar    1  UNL1       -0.0002
     11 C          61.2302   86.9758    9.1968 C.ar    1  UNL1       -0.0014
     12 C          61.9273   87.0382   10.5235 C.ar    1  UNL1        0.0118
     13 H          61.3564   89.0464   13.0684 H       1  UNL1        0.1243
     14 C          60.9195   88.4967    9.9270 C.ar    1  UNL1       -0.0019
     15 C          59.6248   87.7623    9.7422 C.ar    1  UNL1       -0.0026
     16 C          58.8564   87.9072    8.4622 C.ar    1  UNL1       -0.0003
     17 C          59.3826   88.7866    7.3669 C.ar    1  UNL1       -0.0000
     18 C          60.6775   89.5212    7.5517 C.ar    1  UNL1       -0.0003
     19 C          61.4459   89.3761    8.8318 C.ar    1  UNL1       -0.0026
     20 C          61.1066   89.7298   11.3209 C.3     1  UNL1        0.2224
     21 C          59.7791   89.9309   11.9897 C.2     1  UNL1        0.0919
     22 O          59.3260   88.9806   13.0582 O.co2   1  UNL1       -0.5455
     23 O          58.9047   91.0822   11.5900 O.co2   1  UNL1       -0.5455
     24 O          61.8528   90.9068   10.7660 O.3     1  UNL1       -0.4716
     25 C          66.5894   92.9793   10.2466 C.3     1  UNL1        0.0311
     26 C          65.5343   92.3493   11.1068 C.ar    1  UNL1       -0.0192
     27 C          65.7923   92.1256   12.5674 C.ar    1  UNL1       -0.0083
     28 C          64.7372   91.4956   13.4275 C.ar    1  UNL1       -0.0192
     29 C          64.9953   91.2718   14.8882 C.3     1  UNL1        0.0311
     30 C          63.4241   91.0893   12.8271 C.ar    1  UNL1        0.0326
     31 C          63.1660   91.3131   11.3665 C.ar    1  UNL1        0.1384
     32 C          64.2211   91.9431   10.5063 C.ar    1  UNL1        0.0326
     33 C          64.2165   84.4170   12.4688 C.3     1  UNL1        0.1292
     34 C          63.4393   83.1817   12.8154 C.ar    1  UNL1        0.0531
     35 C          62.5445   83.1718   14.0192 C.ar    1  UNL1        0.1422
     36 F          62.3101   84.3003   14.9792 F       1  UNL1       -0.2043
     37 C          61.7674   81.9366   14.3659 C.ar    1  UNL1        0.0591
     38 C          61.8850   80.7112   13.5088 C.ar    1  UNL1        0.1446
     39 F          61.1078   79.4760   13.8554 F       1  UNL1       -0.2040
     40 C          62.7798   80.7212   12.3050 C.ar    1  UNL1        0.0591
     41 C          63.5569   81.9564   11.9583 C.ar    1  UNL1        0.1422
     42 F          64.4518   81.9664   10.7544 F       1  UNL1       -0.2043
@<TRIPOS>UNITY_ATOM_ATTR
22 1
charge -1
@<TRIPOS>BOND
     1    25    26    1
     2    26    27   ar
     3    27    28   ar
     4    28    29    1
     5    28    30   ar
     6    30    31   ar
     7    31    24    1
     8    20    24    1
     9    20    21    1
    10    21    22   ar
    11    21    23   ar
    12    20     1    1
    13     1    14    1
    14    14    15   ar
    15    15    16   ar
    16    16    17   ar
    17    17    18   ar
    18    18    19   ar
    19     1     2    1
    20     2     3    1
    21     3     4    1
    22     4     5    2
    23     4     6   am
    24     6    33    1
    25    33    34    1
    26    34    35   ar
    27    35    36    1
    28    35    37   ar
    29    37    38   ar
    30    38    39    1
    31    38    40   ar
    32    40    41   ar
    33    41    42    1
    34     6     7    1
    35     7     8   ar
    36     8     9   ar
    37     9    10   ar
    38    10    11   ar
    39    11    12   ar
    40    31    32   ar
    41    32    26   ar
    42    12     1    1
    43    19    14   ar
    44    41    34   ar
    45    12     7   ar
    46     2    13    1
@<TRIPOS>MOLECULE
*****
 42 46 0 0 0
SMALL
GASTEIGER

@<TRIPOS>ATOM
      1 C          61.8102   88.4215   11.4127 C.3     1  UNL1        0.1243
      2 N          62.3447   88.9565   12.7081 N.3     1  UNL1       -0.2823
      3 C          63.2233   88.2703   13.7118 C.3     1  UNL1        0.1560
      4 C          63.7843   86.8799   13.6680 C.2     1  UNL1        0.2457
      5 O          64.6049   86.6528   14.9030 O.2     1  UNL1       -0.2730
      6 N          63.6052   85.8321   12.6097 N.am    1  UNL1       -0.2533
      7 C          62.8210   85.9160   11.3337 C.ar    1  UNL1        0.0518
      8 C          62.9035   84.6368   10.5547 C.ar    1  UNL1        0.0146
      9 C          62.1871   84.5101    9.2429 C.ar    1  UNL1        0.0013
     10 C          61.3882   85.6625    8.7103 C.ar    1  UNL1       -0.0002
     11 C          61.3057   86.9417    9.4893 C.ar    1  UNL1       -0.0014
     12 C          62.0221   87.0684   10.8010 C.ar    1  UNL1        0.0118
     13 H          61.5142   89.2241   13.2362 H       1  UNL1        0.1243
     14 C          61.0259   88.5054   10.1368 C.ar    1  UNL1       -0.0019
     15 C          61.5646   89.2872    8.9754 C.ar    1  UNL1       -0.0026
     16 C          60.7804   89.3711    7.6996 C.ar    1  UNL1       -0.0003
     17 C          59.4575   88.6733    7.5850 C.ar    1  UNL1       -0.0000
     18 C          58.9188   87.8915    8.7464 C.ar    1  UNL1       -0.0003
     19 C          59.7031   87.8076   10.0223 C.ar    1  UNL1       -0.0026
     20 C          61.2492   89.8120   11.4565 C.3     1  UNL1        0.2224
     21 C          59.9267   90.0667   12.1169 C.2     1  UNL1        0.0919
     22 O          59.5336   89.2843   13.3349 O.co2   1  UNL1       -0.5455
     23 O          58.9974   91.1037   11.5594 O.co2   1  UNL1       -0.5455
     24 O          62.0107   90.9477   10.8400 O.3     1  UNL1       -0.4716
     25 C          65.1962   91.4082   14.9193 C.3     1  UNL1        0.0311
     26 C          64.9234   91.5965   13.4564 C.ar    1  UNL1       -0.0192
     27 C          65.9705   92.2035   12.5702 C.ar    1  UNL1       -0.0083
     28 C          65.6976   92.3918   11.1073 C.ar    1  UNL1       -0.0192
     29 C          66.7447   92.9988   10.2211 C.3     1  UNL1        0.0311
     30 C          64.3778   91.9733   10.5306 C.ar    1  UNL1        0.0326
     31 C          63.3307   91.3663   11.4168 C.ar    1  UNL1        0.1384
     32 C          63.6035   91.1780   12.8797 C.ar    1  UNL1        0.0326
     33 C          64.3026   84.5280   12.8604 C.3     1  UNL1        0.1292
     34 C          63.5012   83.2818   13.0948 C.ar    1  UNL1        0.0531
     35 C          63.6718   82.0989   12.1885 C.ar    1  UNL1        0.1422
     36 F          64.5922   81.9905   11.0090 F       1  UNL1       -0.2043
     37 C          62.8705   80.8527   12.4228 C.ar    1  UNL1        0.0591
     38 C          61.8985   80.7896   13.5635 C.ar    1  UNL1        0.1446
     39 F          61.0970   79.5434   13.7979 F       1  UNL1       -0.2040
     40 C          61.7278   81.9726   14.4698 C.ar    1  UNL1        0.0591
     41 C          62.5292   83.2187   14.2355 C.ar    1  UNL1        0.1422
     42 F          62.3585   84.4017   15.1418 F       1  UNL1       -0.2043
@<TRIPOS>UNITY_ATOM_ATTR
22 1
charge -1
@<TRIPOS>BOND
     1    25    26    1
     2    26    27   ar
     3    27    28   ar
     4    28    29    1
     5    28    30   ar
     6    30    31   ar
     7    31    24    1
     8    20    24    1
     9    20    21    1
    10    21    22   ar
    11    21    23   ar
    12    20     1    1
    13     1    14    1
    14    14    15   ar
    15    15    16   ar
    16    16    17   ar
    17    17    18   ar
    18    18    19   ar
    19     1     2    1
    20     2     3    1
    21     3     4    1
    22     4     5    2
    23     4     6   am
    24     6    33    1
    25    33    34    1
    26    34    35   ar
    27    35    36    1
    28    35    37   ar
    29    37    38   ar
    30    38    39    1
    31    38    40   ar
    32    40    41   ar
    33    41    42    1
    34     6     7    1
    35     7     8   ar
    36     8     9   ar
    37     9    10   ar
    38    10    11   ar
    39    11    12   ar
    40    31    32   ar
    41    32    26   ar
    42    12     1    1
    43    19    14   ar
    44    41    34   ar
    45    12     7   ar
    46     2    13    1
