@<TRIPOS>MOLECULE
*****
 25 28 0 0 0
SMALL
GASTEIGER

@<TRIPOS>ATOM
      1 C          64.4090   90.9165   14.0202 C.ar    1  UNL1        0.1386
      2 C          64.6019   89.4835   14.4191 C.ar    1  UNL1        0.0384
      3 C          63.9694   88.3887   13.6121 C.ar    1  UNL1        0.0203
      4 C          63.1440   88.7270   12.4062 C.ar    1  UNL1        0.0602
      5 C          62.9511   90.1600   12.0073 C.ar    1  UNL1        0.0204
      6 C          63.5836   91.2548   12.8143 C.ar    1  UNL1        0.0384
      7 C          62.0909   90.1875   10.7787 C.ar    1  UNL1        0.0233
      8 C          61.7522   88.7713   10.4183 C.ar    1  UNL1        0.1140
      9 N          62.4030   87.8687   11.4241 N.ar    1  UNL1       -0.3219
     10 C          62.2368   86.3819   11.3158 C.3     1  UNL1        0.1273
     11 C          61.4199   85.7977   10.2017 C.3     1  UNL1        0.1142
     12 N          60.7691   86.7004    9.1959 N.am    1  UNL1       -0.2978
     13 C          60.9353   88.1872    9.3042 C.2     1  UNL1        0.2618
     14 O          60.2844   89.0899    8.2983 O.2     1  UNL1       -0.2686
     15 H          60.2329   86.3169    8.4647 H       1  UNL1        0.1499
     16 O          65.0415   92.0114   14.8273 O.3     1  UNL1       -0.4754
     17 C          66.3934   92.5383   14.4469 C.3     1  UNL1        0.2068
     18 C          66.5279   93.5081   13.3105 C.3     1  UNL1        0.0646
     19 C          66.7448   93.0029   11.9150 C.3     1  UNL1        0.0759
     20 C          68.4457   92.3762    9.2014 C.3     1  UNL1        0.0173
     21 C          67.7968   93.6819    9.5534 C.3     1  UNL1        0.0576
     22 C          67.8158   94.9289    8.7200 C.3     1  UNL1        0.0174
     23 C          67.0457   95.9877    9.4521 C.3     1  UNL1        0.0187
     24 C          66.5508   95.3950   10.7381 C.3     1  UNL1        0.0721
     25 N          67.0150   93.9700   10.8007 N.3     1  UNL1       -0.2738
@<TRIPOS>BOND
     1    21    20    1
     2    21    22    1
     3    22    23    1
     4    23    24    1
     5    24    25    1
     6    25    19    1
     7    19    18    1
     8    18    17    1
     9    17    16    1
    10    16     1    1
    11     1     2   ar
    12     2     3   ar
    13     3     4   ar
    14     4     5   ar
    15     5     6   ar
    16     5     7   ar
    17     7     8   ar
    18     8     9   ar
    19     9    10    1
    20    10    11    1
    21    11    12    1
    22    12    13   am
    23    13    14    2
    24    25    21    1
    25     6     1   ar
    26    13     8    1
    27     9     4   ar
    28    12    15    1
@<TRIPOS>MOLECULE
*****
 25 28 0 0 0
SMALL
GASTEIGER

@<TRIPOS>ATOM
      1 C          62.1694   88.7759   11.4769 C.ar    1  UNL1        0.1386
      2 C          62.2351   89.5914   10.2197 C.ar    1  UNL1        0.0384
      3 C          63.1023   90.8140   10.1633 C.ar    1  UNL1        0.0203
      4 C          63.9039   91.2210   11.3641 C.ar    1  UNL1        0.0602
      5 C          63.8382   90.4055   12.6213 C.ar    1  UNL1        0.0204
      6 C          62.9709   89.1829   12.6777 C.ar    1  UNL1        0.0384
      7 C          64.7342   91.0483   13.6381 C.ar    1  UNL1        0.0233
      8 C          65.3536   92.2611   13.0094 C.ar    1  UNL1        0.1140
      9 N          64.8405   92.3679   11.6039 N.ar    1  UNL1       -0.3219
     10 C          65.2924   93.4956   10.7242 C.3     1  UNL1        0.1273
     11 C          66.2574   94.5165   11.2498 C.3     1  UNL1        0.1142
     12 N          66.7706   94.4098   12.6552 N.am    1  UNL1       -0.2978
     13 C          66.3186   93.2820   13.5350 C.2     1  UNL1        0.2618
     14 O          66.8318   93.1753   14.9406 O.2     1  UNL1       -0.2686
     15 H          67.4039   95.0799   13.0003 H       1  UNL1        0.1499
     16 O          61.3022   87.5533   11.5334 O.3     1  UNL1       -0.4754
     17 C          61.4733   86.4647   10.5157 C.3     1  UNL1        0.2068
     18 C          62.3696   85.2981   10.8089 C.3     1  UNL1        0.0646
     19 C          62.7455   84.9784   12.2254 C.3     1  UNL1        0.0759
     20 C          62.4331   84.0754   15.3457 C.3     1  UNL1        0.0173
     21 C          62.4977   83.1544   14.1635 C.3     1  UNL1        0.0576
     22 C          62.4300   81.6566   14.2080 C.3     1  UNL1        0.0174
     23 C          62.5317   81.1459   12.8012 C.3     1  UNL1        0.0187
     24 C          62.6623   82.3282   11.8873 C.3     1  UNL1        0.0721
     25 N          62.6412   83.5695   12.7292 N.3     1  UNL1       -0.2738
@<TRIPOS>BOND
     1    21    20    1
     2    21    22    1
     3    22    23    1
     4    23    24    1
     5    24    25    1
     6    25    19    1
     7    19    18    1
     8    18    17    1
     9    17    16    1
    10    16     1    1
    11     1     2   ar
    12     2     3   ar
    13     3     4   ar
    14     4     5   ar
    15     5     6   ar
    16     5     7   ar
    17     7     8   ar
    18     8     9   ar
    19     9    10    1
    20    10    11    1
    21    11    12    1
    22    12    13   am
    23    13    14    2
    24    25    21    1
    25     6     1   ar
    26    13     8    1
    27     9     4   ar
    28    12    15    1
@<TRIPOS>MOLECULE
*****
 25 28 0 0 0
SMALL
GASTEIGER

@<TRIPOS>ATOM
      1 C          64.1887   90.2655   13.9029 C.ar    1  UNL1        0.1386
      2 C          63.5025   90.0503   12.5865 C.ar    1  UNL1        0.0384
      3 C          63.1605   88.6606   12.1375 C.ar    1  UNL1        0.0203
      4 C          63.5046   87.4861   13.0048 C.ar    1  UNL1        0.0602
      5 C          64.1908   87.7014   14.3212 C.ar    1  UNL1        0.0204
      6 C          64.5328   89.0911   14.7702 C.ar    1  UNL1        0.0384
      7 C          64.4040   86.3599   14.9576 C.ar    1  UNL1        0.0233
      8 C          63.8495   85.3156   14.0345 C.ar    1  UNL1        0.1140
      9 N          63.2937   86.0116   12.8276 N.ar    1  UNL1       -0.3219
     10 C          62.6674   85.2128   11.7233 C.3     1  UNL1        0.1273
     11 C          62.5969   83.7180   11.8258 C.3     1  UNL1        0.1142
     12 N          63.1527   83.0220   13.0327 N.am    1  UNL1       -0.2978
     13 C          63.7790   83.8208   14.1371 C.2     1  UNL1        0.2618
     14 O          64.3349   83.1247   15.3441 O.2     1  UNL1       -0.2686
     15 H          63.1064   82.0409   13.1000 H       1  UNL1        0.1499
     16 O          64.5307   91.6553   14.3520 O.3     1  UNL1       -0.4754
     17 C          65.9664   92.0747   14.4659 C.3     1  UNL1        0.2068
     18 C          66.5496   93.0316   13.4687 C.3     1  UNL1        0.0646
     19 C          66.6293   92.6494   12.0204 C.3     1  UNL1        0.0759
     20 C          68.3929   92.2256    9.3076 C.3     1  UNL1        0.0173
     21 C          67.7279   93.4998    9.7368 C.3     1  UNL1        0.0576
     22 C          67.7568   94.8028    8.9944 C.3     1  UNL1        0.0174
     23 C          66.9640   95.8031    9.7826 C.3     1  UNL1        0.0187
     24 C          66.4452   95.1181   11.0120 C.3     1  UNL1        0.0721
     25 N          66.9173   93.6946   10.9838 N.3     1  UNL1       -0.2738
@<TRIPOS>BOND
     1    21    20    1
     2    21    22    1
     3    22    23    1
     4    23    24    1
     5    24    25    1
     6    25    19    1
     7    19    18    1
     8    18    17    1
     9    17    16    1
    10    16     1    1
    11     1     2   ar
    12     2     3   ar
    13     3     4   ar
    14     4     5   ar
    15     5     6   ar
    16     5     7   ar
    17     7     8   ar
    18     8     9   ar
    19     9    10    1
    20    10    11    1
    21    11    12    1
    22    12    13   am
    23    13    14    2
    24    25    21    1
    25     6     1   ar
    26    13     8    1
    27     9     4   ar
    28    12    15    1
@<TRIPOS>MOLECULE
*****
 25 28 0 0 0
SMALL
GASTEIGER

@<TRIPOS>ATOM
      1 C          61.5726   89.6974   10.4933 C.ar    1  UNL1        0.1386
      2 C          61.6068   89.3315   11.9476 C.ar    1  UNL1        0.0384
      3 C          62.6371   89.9423   12.8505 C.ar    1  UNL1        0.0203
      4 C          63.6333   90.9189   12.2992 C.ar    1  UNL1        0.0602
      5 C          63.5991   91.2848   10.8449 C.ar    1  UNL1        0.0204
      6 C          62.5688   90.6740    9.9420 C.ar    1  UNL1        0.0384
      7 C          64.7012   92.2694   10.5887 C.ar    1  UNL1        0.0233
      8 C          65.4166   92.5121   11.8846 C.ar    1  UNL1        0.1140
      9 N          64.7566   91.6775   12.9418 N.ar    1  UNL1       -0.3219
     10 C          65.2637   91.7160   14.3529 C.3     1  UNL1        0.1273
     11 C          66.4308   92.5892   14.7068 C.3     1  UNL1        0.1142
     12 N          67.0908   93.4238   13.6496 N.am    1  UNL1       -0.2978
     13 C          66.5837   93.3853   12.2385 C.2     1  UNL1        0.2618
     14 O          67.2438   94.2200   11.1812 O.2     1  UNL1       -0.2686
     15 H          67.8569   93.9970   13.8819 H       1  UNL1        0.1499
     16 O          60.5423   89.0866    9.5903 O.3     1  UNL1       -0.4754
     17 C          60.4233   87.5948    9.4891 C.3     1  UNL1        0.2068
     18 C          61.6363   86.7315    9.6726 C.3     1  UNL1        0.0646
     19 C          61.7553   85.8527   10.8823 C.3     1  UNL1        0.0759
     20 C          62.7843   84.2260   13.5175 C.3     1  UNL1        0.0173
     21 C          63.2072   83.9685   12.1016 C.3     1  UNL1        0.0576
     22 C          64.1773   82.9181   11.6483 C.3     1  UNL1        0.0174
     23 C          64.3039   83.0166   10.1569 C.3     1  UNL1        0.0187
     24 C          63.4120   84.1279    9.6884 C.3     1  UNL1        0.0721
     25 N          62.7342   84.7162   10.8903 N.3     1  UNL1       -0.2738
@<TRIPOS>BOND
     1    21    20    1
     2    21    22    1
     3    22    23    1
     4    23    24    1
     5    24    25    1
     6    25    19    1
     7    19    18    1
     8    18    17    1
     9    17    16    1
    10    16     1    1
    11     1     2   ar
    12     2     3   ar
    13     3     4   ar
    14     4     5   ar
    15     5     6   ar
    16     5     7   ar
    17     7     8   ar
    18     8     9   ar
    19     9    10    1
    20    10    11    1
    21    11    12    1
    22    12    13   am
    23    13    14    2
    24    25    21    1
    25     6     1   ar
    26    13     8    1
    27     9     4   ar
    28    12    15    1
@<TRIPOS>MOLECULE
*****
 25 28 0 0 0
SMALL
GASTEIGER

@<TRIPOS>ATOM
      1 C          63.4587   89.7869   12.6563 C.ar    1  UNL1        0.1386
      2 C          64.1364   89.5693   13.9766 C.ar    1  UNL1        0.0384
      3 C          64.3039   88.1787   14.5134 C.ar    1  UNL1        0.0203
      4 C          63.7938   87.0057   13.7298 C.ar    1  UNL1        0.0602
      5 C          63.1161   87.2234   12.4095 C.ar    1  UNL1        0.0204
      6 C          62.9486   88.6140   11.8727 C.ar    1  UNL1        0.0384
      7 C          62.7186   85.8830   11.8660 C.ar    1  UNL1        0.0233
      8 C          63.1506   84.8370   12.8505 C.ar    1  UNL1        0.1140
      9 N          63.8151   85.5308   14.0024 N.ar    1  UNL1       -0.3219
     10 C          64.3537   84.7300   15.1506 C.3     1  UNL1        0.1273
     11 C          64.2279   83.2353   15.1470 C.3     1  UNL1        0.1142
     12 N          63.5633   82.5415   13.9950 N.am    1  UNL1       -0.2978
     13 C          63.0247   83.3423   12.8468 C.2     1  UNL1        0.2618
     14 O          62.3601   82.6484   11.6948 O.2     1  UNL1       -0.2686
     15 H          63.4807   81.5605   13.9926 H       1  UNL1        0.1499
     16 O          63.2912   91.1775   12.1194 O.3     1  UNL1       -0.4754
     17 C          64.4550   91.8836   11.4896 C.3     1  UNL1        0.2068
     18 C          65.5755   92.3942   12.3463 C.3     1  UNL1        0.0646
     19 C          66.9249   92.6491   11.7427 C.3     1  UNL1        0.0759
     20 C          68.5744   92.4378    8.9350 C.3     1  UNL1        0.0173
     21 C          67.8599   93.6526    9.4485 C.3     1  UNL1        0.0576
     22 C          67.7783   94.9836    8.7616 C.3     1  UNL1        0.0174
     23 C          66.9695   95.9033    9.6277 C.3     1  UNL1        0.0187
     24 C          66.5514   95.1408   10.8498 C.3     1  UNL1        0.0721
     25 N          67.1017   93.7497   10.7391 N.3     1  UNL1       -0.2738
@<TRIPOS>BOND
     1    21    20    1
     2    21    22    1
     3    22    23    1
     4    23    24    1
     5    24    25    1
     6    25    19    1
     7    19    18    1
     8    18    17    1
     9    17    16    1
    10    16     1    1
    11     1     2   ar
    12     2     3   ar
    13     3     4   ar
    14     4     5   ar
    15     5     6   ar
    16     5     7   ar
    17     7     8   ar
    18     8     9   ar
    19     9    10    1
    20    10    11    1
    21    11    12    1
    22    12    13   am
    23    13    14    2
    24    25    21    1
    25     6     1   ar
    26    13     8    1
    27     9     4   ar
    28    12    15    1
@<TRIPOS>MOLECULE
*****
 25 28 0 0 0
SMALL
GASTEIGER

@<TRIPOS>ATOM
      1 C          63.4890   87.7227   13.0415 C.ar    1  UNL1        0.1386
      2 C          63.1095   89.1447   12.7522 C.ar    1  UNL1        0.0384
      3 C          62.2495   89.4648   11.5656 C.ar    1  UNL1        0.0203
      4 C          61.7692   88.3629   10.6683 C.ar    1  UNL1        0.0602
      5 C          62.1488   86.9409   10.9577 C.ar    1  UNL1        0.0204
      6 C          63.0087   86.6208   12.1443 C.ar    1  UNL1        0.0384
      7 C          61.5301   86.0722    9.9028 C.ar    1  UNL1        0.0233
      8 C          60.7682   86.9574    8.9616 C.ar    1  UNL1        0.1140
      9 N          60.9159   88.3731    9.4346 N.ar    1  UNL1       -0.3219
     10 C          60.2545   89.4886    8.6810 C.3     1  UNL1        0.1273
     11 C          59.4452   89.1884    7.4542 C.3     1  UNL1        0.1142
     12 N          59.2975   87.7726    6.9812 N.am    1  UNL1       -0.2978
     13 C          59.9590   86.6571    7.7348 C.2     1  UNL1        0.2618
     14 O          59.8112   85.2413    7.2617 O.2     1  UNL1       -0.2686
     15 H          58.7664   87.5756    6.1760 H       1  UNL1        0.1499
     16 O          64.3490   87.4025   14.2282 O.3     1  UNL1       -0.4754
     17 C          64.1071   86.1472   15.0129 C.3     1  UNL1        0.2068
     18 C          64.8575   84.8937   14.6727 C.3     1  UNL1        0.0646
     19 C          64.1373   83.5790   14.6216 C.3     1  UNL1        0.0759
     20 C          61.8301   81.3393   14.0646 C.3     1  UNL1        0.0173
     21 C          62.7629   81.9173   13.0420 C.3     1  UNL1        0.0576
     22 C          62.7990   81.5673   11.5839 C.3     1  UNL1        0.0174
     23 C          63.8818   82.3805   10.9386 C.3     1  UNL1        0.0187
     24 C          64.5149   83.2331   11.9981 C.3     1  UNL1        0.0721
     25 N          63.8234   82.9468   13.2980 N.3     1  UNL1       -0.2738
@<TRIPOS>BOND
     1    21    20    1
     2    21    22    1
     3    22    23    1
     4    23    24    1
     5    24    25    1
     6    25    19    1
     7    19    18    1
     8    18    17    1
     9    17    16    1
    10    16     1    1
    11     1     2   ar
    12     2     3   ar
    13     3     4   ar
    14     4     5   ar
    15     5     6   ar
    16     5     7   ar
    17     7     8   ar
    18     8     9   ar
    19     9    10    1
    20    10    11    1
    21    11    12    1
    22    12    13   am
    23    13    14    2
    24    25    21    1
    25     6     1   ar
    26    13     8    1
    27     9     4   ar
    28    12    15    1
@<TRIPOS>MOLECULE
*****
 25 28 0 0 0
SMALL
GASTEIGER

@<TRIPOS>ATOM
      1 C          63.4524   86.9046   16.1200 C.ar    1  UNL1        0.1386
      2 C          62.5435   85.9464   16.8311 C.ar    1  UNL1        0.0384
      3 C          62.2556   84.6014   16.2328 C.ar    1  UNL1        0.0203
      4 C          62.8766   84.2145   14.9234 C.ar    1  UNL1        0.0602
      5 C          63.7855   85.1727   14.2122 C.ar    1  UNL1        0.0204
      6 C          64.0734   86.5177   14.8105 C.ar    1  UNL1        0.0384
      7 C          64.2493   84.5178   12.9449 C.ar    1  UNL1        0.0233
      8 C          63.6270   83.1548   12.8728 C.ar    1  UNL1        0.1140
      9 N          62.7786   82.9674   14.0956 N.ar    1  UNL1       -0.3219
     10 C          62.0265   81.6854   14.2973 C.3     1  UNL1        0.1273
     11 C          62.1228   80.5908   13.2762 C.3     1  UNL1        0.1142
     12 N          62.9711   80.7783   12.0535 N.am    1  UNL1       -0.2978
     13 C          63.7233   82.0603   11.8518 C.2     1  UNL1        0.2618
     14 O          64.5716   82.2478   10.6289 O.2     1  UNL1       -0.2686
     15 H          63.0343   80.0598   11.3833 H       1  UNL1        0.1499
     16 O          63.7403   88.2497   16.7183 O.3     1  UNL1       -0.4754
     17 C          63.0821   89.4758   16.1586 C.3     1  UNL1        0.2068
     18 C          63.6152   90.1084   14.9073 C.3     1  UNL1        0.0646
     19 C          64.7334   91.1049   14.9883 C.3     1  UNL1        0.0759
     20 C          67.0229   93.4268   14.8616 C.3     1  UNL1        0.0173
     21 C          66.1949   92.9412   13.7090 C.3     1  UNL1        0.0576
     22 C          66.2739   93.4377   12.2958 C.3     1  UNL1        0.0174
     23 C          65.2703   92.6772   11.4805 C.3     1  UNL1        0.0187
     24 C          64.5711   91.7108   12.3900 C.3     1  UNL1        0.0721
     25 N          65.1425   91.8740   13.7673 N.3     1  UNL1       -0.2738
@<TRIPOS>BOND
     1    21    20    1
     2    21    22    1
     3    22    23    1
     4    23    24    1
     5    24    25    1
     6    25    19    1
     7    19    18    1
     8    18    17    1
     9    17    16    1
    10    16     1    1
    11     1     2   ar
    12     2     3   ar
    13     3     4   ar
    14     4     5   ar
    15     5     6   ar
    16     5     7   ar
    17     7     8   ar
    18     8     9   ar
    19     9    10    1
    20    10    11    1
    21    11    12    1
    22    12    13   am
    23    13    14    2
    24    25    21    1
    25     6     1   ar
    26    13     8    1
    27     9     4   ar
    28    12    15    1
@<TRIPOS>MOLECULE
*****
 25 28 0 0 0
SMALL
GASTEIGER

@<TRIPOS>ATOM
      1 C          62.1597   87.3664   10.0229 C.ar    1  UNL1        0.1386
      2 C          62.0513   86.1915    9.0967 C.ar    1  UNL1        0.0384
      3 C          62.2837   84.8035    9.6157 C.ar    1  UNL1        0.0203
      4 C          62.6244   84.5904   11.0608 C.ar    1  UNL1        0.0602
      5 C          62.7328   85.7653   11.9870 C.ar    1  UNL1        0.0204
      6 C          62.5004   87.1533   11.4680 C.ar    1  UNL1        0.0384
      7 C          63.0810   85.2491   13.3517 C.ar    1  UNL1        0.0233
      8 C          63.1878   83.7552   13.2689 C.ar    1  UNL1        0.1140
      9 N          62.9056   83.3480   11.8531 N.ar    1  UNL1       -0.3219
     10 C          62.9412   81.8988   11.4682 C.3     1  UNL1        0.1273
     11 C          63.2589   80.8566   12.4991 C.3     1  UNL1        0.1142
     12 N          63.5411   81.2637   13.9150 N.am    1  UNL1       -0.2978
     13 C          63.5055   82.7131   14.2999 C.2     1  UNL1        0.2618
     14 O          63.7877   83.1202   15.7158 O.2     1  UNL1       -0.2686
     15 H          63.7496   80.5797   14.5916 H       1  UNL1        0.1499
     16 O          61.9273   88.7545    9.5039 O.3     1  UNL1       -0.4754
     17 C          61.0791   89.7147   10.2841 C.3     1  UNL1        0.2068
     18 C          61.7231   90.6985   11.2155 C.3     1  UNL1        0.0646
     19 C          63.2028   90.9356   11.1499 C.3     1  UNL1        0.0759
     20 C          65.5582   93.0520   11.9389 C.3     1  UNL1        0.0173
     21 C          65.1047   91.8877   12.7688 C.3     1  UNL1        0.0576
     22 C          65.6544   91.4918   14.1071 C.3     1  UNL1        0.0174
     23 C          64.9114   90.2743   14.5717 C.3     1  UNL1        0.0187
     24 C          63.9026   89.9178   13.5204 C.3     1  UNL1        0.0721
     25 N          64.0221   90.9149   12.4061 N.3     1  UNL1       -0.2738
@<TRIPOS>BOND
     1    21    20    1
     2    21    22    1
     3    22    23    1
     4    23    24    1
     5    24    25    1
     6    25    19    1
     7    19    18    1
     8    18    17    1
     9    17    16    1
    10    16     1    1
    11     1     2   ar
    12     2     3   ar
    13     3     4   ar
    14     4     5   ar
    15     5     6   ar
    16     5     7   ar
    17     7     8   ar
    18     8     9   ar
    19     9    10    1
    20    10    11    1
    21    11    12    1
    22    12    13   am
    23    13    14    2
    24    25    21    1
    25     6     1   ar
    26    13     8    1
    27     9     4   ar
    28    12    15    1
@<TRIPOS>MOLECULE
*****
 25 28 0 0 0
SMALL
GASTEIGER

@<TRIPOS>ATOM
      1 C          63.4930   89.6570   12.8456 C.ar    1  UNL1        0.1386
      2 C          64.1806   89.3893   14.1516 C.ar    1  UNL1        0.0384
      3 C          64.3451   87.9797   14.6374 C.ar    1  UNL1        0.0203
      4 C          63.8220   86.8379   13.8173 C.ar    1  UNL1        0.0602
      5 C          63.1345   87.1056   12.5113 C.ar    1  UNL1        0.0204
      6 C          62.9700   88.5152   12.0255 C.ar    1  UNL1        0.0384
      7 C          62.7251   85.7874   11.9242 C.ar    1  UNL1        0.0233
      8 C          63.1597   84.7049   12.8674 C.ar    1  UNL1        0.1140
      9 N          63.8376   85.3542   14.0374 N.ar    1  UNL1       -0.3219
     10 C          64.3815   84.5105   15.1519 C.3     1  UNL1        0.1273
     11 C          64.2475   83.0175   15.0965 C.3     1  UNL1        0.1142
     12 N          63.5696   82.3683   13.9265 N.am    1  UNL1       -0.2978
     13 C          63.0257   83.2120   12.8119 C.2     1  UNL1        0.2618
     14 O          62.3477   82.5627   11.6419 O.2     1  UNL1       -0.2686
     15 H          63.4817   81.3884   13.8901 H       1  UNL1        0.1499
     16 O          63.3285   91.0666   12.3597 O.3     1  UNL1       -0.4754
     17 C          63.3023   91.3543   10.8879 C.3     1  UNL1        0.2068
     18 C          64.4481   92.0776   10.2445 C.3     1  UNL1        0.0646
     19 C          65.2695   93.0441   11.0452 C.3     1  UNL1        0.0759
     20 C          68.2184   92.1361    9.9828 C.3     1  UNL1        0.0173
     21 C          67.7533   92.1260   11.4088 C.3     1  UNL1        0.0576
     22 C          68.5621   91.6966   12.5968 C.3     1  UNL1        0.0174
     23 C          67.7065   91.8486   13.8195 C.3     1  UNL1        0.0187
     24 C          66.3689   92.3719   13.3871 C.3     1  UNL1        0.0721
     25 N          66.3978   92.5433   11.8972 N.3     1  UNL1       -0.2738
@<TRIPOS>BOND
     1    21    20    1
     2    21    22    1
     3    22    23    1
     4    23    24    1
     5    24    25    1
     6    25    19    1
     7    19    18    1
     8    18    17    1
     9    17    16    1
    10    16     1    1
    11     1     2   ar
    12     2     3   ar
    13     3     4   ar
    14     4     5   ar
    15     5     6   ar
    16     5     7   ar
    17     7     8   ar
    18     8     9   ar
    19     9    10    1
    20    10    11    1
    21    11    12    1
    22    12    13   am
    23    13    14    2
    24    25    21    1
    25     6     1   ar
    26    13     8    1
    27     9     4   ar
    28    12    15    1
