@<TRIPOS>MOLECULE
*****
 23 25 0 0 0
SMALL
GASTEIGER

@<TRIPOS>ATOM
      1 C          65.9613   92.4219   13.7246 C.3     1  UNL1        0.0064
      2 C          65.3806   92.5615   12.3486 C.3     1  UNL1        0.0261
      3 C          64.3642   91.5727   11.8596 C.ar    1  UNL1       -0.0258
      4 C          63.7835   91.7123   10.4837 C.ar    1  UNL1       -0.0046
      5 C          62.7671   90.7235    9.9948 C.ar    1  UNL1       -0.0003
      6 C          62.3314   89.5950   10.8818 C.ar    1  UNL1       -0.0003
      7 C          62.9121   89.4554   12.2577 C.ar    1  UNL1       -0.0043
      8 C          63.9285   90.4442   12.7467 C.ar    1  UNL1       -0.0224
      9 C          64.5093   90.3046   14.1227 C.3     1  UNL1        0.0443
     10 C          65.5257   91.2935   14.6116 C.3     1  UNL1        0.0091
     11 C          64.0736   89.1762   15.0097 C.ar    1  UNL1       -0.0175
     12 C          63.2756   89.4605   16.2476 C.ar    1  UNL1       -0.0030
     13 C          62.8399   88.3320   17.1347 C.ar    1  UNL1        0.0119
     14 C          63.2022   86.9193   16.7837 C.ar    1  UNL1        0.0682
     15 CL         62.7665   85.7909   17.6707 Cl      1  UNL1       -0.0814
     16 C          64.0002   86.6351   15.5458 C.ar    1  UNL1        0.0679
     17 CL         64.3625   85.2224   15.1948 Cl      1  UNL1       -0.0814
     18 C          64.4358   87.7636   14.6588 C.ar    1  UNL1        0.0083
     19 C          66.9778   93.4108   14.2136 C.3     1  UNL1        0.0172
     20 N          69.3260   92.3010   14.2763 N.3     1  UNL1       -0.3211
     21 C          68.1709   92.9381   14.9902 C.3     1  UNL1        0.0651
     22 H          70.0435   92.0425   14.9536 H       1  UNL1        0.1189
     23 H          69.7157   92.9611   13.6034 H       1  UNL1        0.1189
@<TRIPOS>BOND
     1    20    21    1
     2    21    19    1
     3     1    19    1
     4     1     2    1
     5     2     3    1
     6     3     4   ar
     7     4     5   ar
     8     5     6   ar
     9     6     7   ar
    10     7     8   ar
    11     8     9    1
    12     9    11    1
    13    11    12   ar
    14    12    13   ar
    15    13    14   ar
    16    14    15    1
    17    14    16   ar
    18    16    17    1
    19    16    18   ar
    20     9    10    1
    21    10     1    1
    22     8     3   ar
    23    18    11   ar
    24    20    22    1
    25    20    23    1
@<TRIPOS>MOLECULE
*****
 23 25 0 0 0
SMALL
GASTEIGER

@<TRIPOS>ATOM
      1 C          62.4676   89.5857   11.1812 C.3     1  UNL1        0.0064
      2 C          61.4858   89.8623   10.0814 C.3     1  UNL1        0.0261
      3 C          60.8597   88.7241    9.3312 C.ar    1  UNL1       -0.0258
      4 C          59.8780   89.0007    8.2314 C.ar    1  UNL1       -0.0046
      5 C          59.2520   87.8626    7.4812 C.ar    1  UNL1       -0.0003
      6 C          59.6077   86.4480    7.8308 C.ar    1  UNL1       -0.0003
      7 C          60.5895   86.1714    8.9306 C.ar    1  UNL1       -0.0043
      8 C          61.2155   87.3095    9.6808 C.ar    1  UNL1       -0.0224
      9 C          62.1973   87.0330   10.7806 C.3     1  UNL1        0.0443
     10 C          62.8233   88.1710   11.5308 C.3     1  UNL1        0.0091
     11 C          62.5531   85.6183   11.1302 C.ar    1  UNL1       -0.0175
     12 C          63.1482   84.7158   10.0904 C.ar    1  UNL1       -0.0030
     13 C          63.5040   83.3011   10.4400 C.ar    1  UNL1        0.0119
     14 C          63.2646   82.7890   11.8294 C.ar    1  UNL1        0.0682
     15 CL         63.6203   81.3744   12.1790 Cl      1  UNL1       -0.0814
     16 C          62.6695   83.6916   12.8692 C.ar    1  UNL1        0.0679
     17 CL         62.4301   83.1795   14.2587 Cl      1  UNL1       -0.0814
     18 C          62.3137   85.1062   12.5196 C.ar    1  UNL1        0.0083
     19 C          63.0936   90.7238   11.9315 C.3     1  UNL1        0.0172
     20 N          63.4341   91.2004   14.4626 N.3     1  UNL1       -0.3211
     21 C          63.8242   90.4640   13.2155 C.3     1  UNL1        0.0651
     22 H          64.0309   90.9024   15.2342 H       1  UNL1        0.1189
     23 H          62.4603   90.9961   14.6875 H       1  UNL1        0.1189
@<TRIPOS>BOND
     1    20    21    1
     2    21    19    1
     3     1    19    1
     4     1     2    1
     5     2     3    1
     6     3     4   ar
     7     4     5   ar
     8     5     6   ar
     9     6     7   ar
    10     7     8   ar
    11     8     9    1
    12     9    11    1
    13    11    12   ar
    14    12    13   ar
    15    13    14   ar
    16    14    15    1
    17    14    16   ar
    18    16    17    1
    19    16    18   ar
    20     9    10    1
    21    10     1    1
    22     8     3   ar
    23    18    11   ar
    24    20    22    1
    25    20    23    1
@<TRIPOS>MOLECULE
*****
 23 25 0 0 0
SMALL
GASTEIGER

@<TRIPOS>ATOM
      1 C          63.8265   91.2535   11.3464 C.3     1  UNL1        0.0064
      2 C          64.8423   92.3250   11.6105 C.3     1  UNL1        0.0261
      3 C          65.5464   92.3813   12.9339 C.ar    1  UNL1       -0.0258
      4 C          66.5622   93.4528   13.1980 C.ar    1  UNL1       -0.0046
      5 C          67.2662   93.5091   14.5213 C.ar    1  UNL1       -0.0003
      6 C          66.9543   92.4938   15.5805 C.ar    1  UNL1       -0.0003
      7 C          65.9385   91.4222   15.3164 C.ar    1  UNL1       -0.0043
      8 C          65.2345   91.3660   13.9931 C.ar    1  UNL1       -0.0224
      9 C          64.2186   90.2944   13.7289 C.3     1  UNL1        0.0443
     10 C          63.5146   90.2382   12.4056 C.3     1  UNL1        0.0091
     11 C          63.9067   89.2791   14.7881 C.ar    1  UNL1       -0.0175
     12 C          63.2018   89.6980   16.0443 C.ar    1  UNL1       -0.0030
     13 C          62.8899   88.6828   17.1035 C.ar    1  UNL1        0.0119
     14 C          63.2829   87.2486   16.9066 C.ar    1  UNL1        0.0682
     15 CL         62.9711   86.2333   17.9658 Cl      1  UNL1       -0.0814
     16 C          63.9878   86.8297   15.6505 C.ar    1  UNL1        0.0679
     17 CL         64.3808   85.3955   15.4536 Cl      1  UNL1       -0.0814
     18 C          64.2997   87.8450   14.5913 C.ar    1  UNL1        0.0083
     19 C          63.1225   91.1972   10.0230 C.3     1  UNL1        0.0172
     20 N          60.6386   90.4374   10.0782 N.3     1  UNL1       -0.3211
     21 C          62.0787   90.1494    9.7728 C.3     1  UNL1        0.0651
     22 H          60.0725   89.6205    9.8491 H       1  UNL1        0.1189
     23 H          60.3261   91.2341    9.5232 H       1  UNL1        0.1189
@<TRIPOS>BOND
     1    20    21    1
     2    21    19    1
     3     1    19    1
     4     1     2    1
     5     2     3    1
     6     3     4   ar
     7     4     5   ar
     8     5     6   ar
     9     6     7   ar
    10     7     8   ar
    11     8     9    1
    12     9    11    1
    13    11    12   ar
    14    12    13   ar
    15    13    14   ar
    16    14    15    1
    17    14    16   ar
    18    16    17    1
    19    16    18   ar
    20     9    10    1
    21    10     1    1
    22     8     3   ar
    23    18    11   ar
    24    20    22    1
    25    20    23    1
@<TRIPOS>MOLECULE
*****
 23 25 0 0 0
SMALL
GASTEIGER

@<TRIPOS>ATOM
      1 C          63.9749   85.4793   14.1135 C.3     1  UNL1        0.0064
      2 C          64.4826   86.7843   14.6513 C.3     1  UNL1        0.0261
      3 C          64.1509   88.0661   13.9462 C.ar    1  UNL1       -0.0258
      4 C          64.6586   89.3710   14.4839 C.ar    1  UNL1       -0.0046
      5 C          64.3269   90.6527   13.7788 C.ar    1  UNL1       -0.0003
      6 C          63.4875   90.6294   12.5359 C.ar    1  UNL1       -0.0003
      7 C          62.9797   89.3244   11.9982 C.ar    1  UNL1       -0.0043
      8 C          63.3114   88.0428   12.7033 C.ar    1  UNL1       -0.0224
      9 C          62.8037   86.7377   12.1655 C.3     1  UNL1        0.0443
     10 C          63.1354   85.4560   12.8706 C.3     1  UNL1        0.0091
     11 C          61.9642   86.7144   10.9226 C.ar    1  UNL1       -0.0175
     12 C          60.6687   87.4693   10.8783 C.ar    1  UNL1       -0.0030
     13 C          59.8293   87.4460    9.6354 C.ar    1  UNL1        0.0119
     14 C          60.2853   86.6678    8.4369 C.ar    1  UNL1        0.0682
     15 CL         59.4458   86.6445    7.1940 Cl      1  UNL1       -0.0814
     16 C          61.5807   85.9130    8.4812 C.ar    1  UNL1        0.0679
     17 CL         62.0368   85.1348    7.2826 Cl      1  UNL1       -0.0814
     18 C          62.4202   85.9363    9.7241 C.ar    1  UNL1        0.0083
     19 C          64.3066   84.1976   14.8187 C.3     1  UNL1        0.0172
     20 N          62.6030   82.2581   15.1118 N.3     1  UNL1       -0.3211
     21 C          63.7158   82.9042   14.3410 C.3     1  UNL1        0.0651
     22 H          62.3254   81.3933   14.6476 H       1  UNL1        0.1189
     23 H          61.8055   82.8926   15.1540 H       1  UNL1        0.1189
@<TRIPOS>BOND
     1    20    21    1
     2    21    19    1
     3     1    19    1
     4     1     2    1
     5     2     3    1
     6     3     4   ar
     7     4     5   ar
     8     5     6   ar
     9     6     7   ar
    10     7     8   ar
    11     8     9    1
    12     9    11    1
    13    11    12   ar
    14    12    13   ar
    15    13    14   ar
    16    14    15    1
    17    14    16   ar
    18    16    17    1
    19    16    18   ar
    20     9    10    1
    21    10     1    1
    22     8     3   ar
    23    18    11   ar
    24    20    22    1
    25    20    23    1
@<TRIPOS>MOLECULE
*****
 23 25 0 0 0
SMALL
GASTEIGER

@<TRIPOS>ATOM
      1 C          64.1347   88.0747   13.9205 C.3     1  UNL1        0.0064
      2 C          64.4985   86.7907   14.6054 C.3     1  UNL1        0.0261
      3 C          64.0159   85.4826   14.0521 C.ar    1  UNL1       -0.0258
      4 C          64.3796   84.1987   14.7370 C.ar    1  UNL1       -0.0046
      5 C          63.8970   82.8907   14.1837 C.ar    1  UNL1       -0.0003
      6 C          63.0507   82.8666   12.9455 C.ar    1  UNL1       -0.0003
      7 C          62.6869   84.1506   12.2606 C.ar    1  UNL1       -0.0043
      8 C          63.1695   85.4586   12.8139 C.ar    1  UNL1       -0.0224
      9 C          62.8058   86.7426   12.1290 C.3     1  UNL1        0.0443
     10 C          63.2884   88.0506   12.6823 C.3     1  UNL1        0.0091
     11 C          61.9595   86.7186   10.8908 C.ar    1  UNL1       -0.0175
     12 C          60.6553   87.4590   10.8593 C.ar    1  UNL1       -0.0030
     13 C          59.8089   87.4350    9.6211 C.ar    1  UNL1        0.0119
     14 C          60.2668   86.6705    8.4144 C.ar    1  UNL1        0.0682
     15 CL         59.4204   86.6464    7.1762 Cl      1  UNL1       -0.0814
     16 C          61.5709   85.9301    8.4460 C.ar    1  UNL1        0.0679
     17 CL         62.0288   85.1656    7.2393 Cl      1  UNL1       -0.0814
     18 C          62.4172   85.9541    9.6842 C.ar    1  UNL1        0.0083
     19 C          64.6173   89.3828   14.4738 C.3     1  UNL1        0.0172
     20 N          62.4977   89.5387   15.9680 N.3     1  UNL1       -0.3211
     21 C          63.7693   90.1427   15.4502 C.3     1  UNL1        0.0651
     22 H          62.0524   90.1879   16.6165 H       1  UNL1        0.1189
     23 H          62.7082   88.6657   16.4517 H       1  UNL1        0.1189
@<TRIPOS>BOND
     1    20    21    1
     2    21    19    1
     3     1    19    1
     4     1     2    1
     5     2     3    1
     6     3     4   ar
     7     4     5   ar
     8     5     6   ar
     9     6     7   ar
    10     7     8   ar
    11     8     9    1
    12     9    11    1
    13    11    12   ar
    14    12    13   ar
    15    13    14   ar
    16    14    15    1
    17    14    16   ar
    18    16    17    1
    19    16    18   ar
    20     9    10    1
    21    10     1    1
    22     8     3   ar
    23    18    11   ar
    24    20    22    1
    25    20    23    1
@<TRIPOS>MOLECULE
*****
 23 25 0 0 0
SMALL
GASTEIGER

@<TRIPOS>ATOM
      1 C          60.9979   88.2368    9.5586 C.3     1  UNL1        0.0064
      2 C          61.5324   89.4323   10.2901 C.3     1  UNL1        0.0261
      3 C          62.4267   89.2455   11.4798 C.ar    1  UNL1       -0.0258
      4 C          62.9611   90.4410   12.2114 C.ar    1  UNL1       -0.0046
      5 C          63.8554   90.2542   13.4010 C.ar    1  UNL1       -0.0003
      6 C          64.2152   88.8720   13.8592 C.ar    1  UNL1       -0.0003
      7 C          63.6808   87.6765   13.1276 C.ar    1  UNL1       -0.0043
      8 C          62.7865   87.8633   11.9380 C.ar    1  UNL1       -0.0224
      9 C          62.2521   86.6678   11.2064 C.3     1  UNL1        0.0443
     10 C          61.3578   86.8545   10.0167 C.3     1  UNL1        0.0091
     11 C          62.6119   85.2855   11.6645 C.ar    1  UNL1       -0.0175
     12 C          63.1884   84.2994   10.6921 C.ar    1  UNL1       -0.0030
     13 C          63.5483   82.9172   11.1502 C.ar    1  UNL1        0.0119
     14 C          63.3317   82.5210   12.5807 C.ar    1  UNL1        0.0682
     15 CL         63.6915   81.1388   13.0389 Cl      1  UNL1       -0.0814
     16 C          62.7552   83.5071   13.5530 C.ar    1  UNL1        0.0679
     17 CL         62.5386   83.1109   14.9835 Cl      1  UNL1       -0.0814
     18 C          62.3954   84.8893   13.0949 C.ar    1  UNL1        0.0083
     19 C          60.1036   88.4235    8.3688 C.3     1  UNL1        0.0172
     20 N          58.2983   86.6334    7.8342 N.3     1  UNL1       -0.3211
     21 C          59.6492   87.2328    7.5779 C.3     1  UNL1        0.0651
     22 H          58.1557   85.8379    7.2119 H       1  UNL1        0.1189
     23 H          57.5772   87.3337    7.6614 H       1  UNL1        0.1189
@<TRIPOS>BOND
     1    20    21    1
     2    21    19    1
     3     1    19    1
     4     1     2    1
     5     2     3    1
     6     3     4   ar
     7     4     5   ar
     8     5     6   ar
     9     6     7   ar
    10     7     8   ar
    11     8     9    1
    12     9    11    1
    13    11    12   ar
    14    12    13   ar
    15    13    14   ar
    16    14    15    1
    17    14    16   ar
    18    16    17    1
    19    16    18   ar
    20     9    10    1
    21    10     1    1
    22     8     3   ar
    23    18    11   ar
    24    20    22    1
    25    20    23    1
@<TRIPOS>MOLECULE
*****
 23 25 0 0 0
SMALL
GASTEIGER

@<TRIPOS>ATOM
      1 C          63.8091   88.5709   13.3781 C.3     1  UNL1        0.0064
      2 C          63.1002   89.2584   12.2491 C.3     1  UNL1        0.0261
      3 C          62.3301   88.4524   11.2454 C.ar    1  UNL1       -0.0258
      4 C          61.6212   89.1399   10.1164 C.ar    1  UNL1       -0.0046
      5 C          60.8511   88.3339    9.1128 C.ar    1  UNL1       -0.0003
      6 C          60.7899   86.8404    9.2382 C.ar    1  UNL1       -0.0003
      7 C          61.4988   86.1529   10.3672 C.ar    1  UNL1       -0.0043
      8 C          62.2689   86.9589   11.3708 C.ar    1  UNL1       -0.0224
      9 C          62.9779   86.2714   12.4999 C.3     1  UNL1        0.0443
     10 C          63.7480   87.0774   13.5035 C.3     1  UNL1        0.0091
     11 C          62.9167   84.7779   12.6253 C.ar    1  UNL1       -0.0175
     12 C          62.5015   84.1506   13.9230 C.ar    1  UNL1       -0.0030
     13 C          62.4403   82.6571   14.0484 C.ar    1  UNL1        0.0119
     14 C          62.7944   81.7909   12.8760 C.ar    1  UNL1        0.0682
     15 CL         62.7332   80.2974   13.0014 Cl      1  UNL1       -0.0814
     16 C          63.2096   82.4182   11.5784 C.ar    1  UNL1        0.0679
     17 CL         63.5637   81.5520   10.4060 Cl      1  UNL1       -0.0814
     18 C          63.2708   83.9117   11.4530 C.ar    1  UNL1        0.0083
     19 C          64.5793   89.3769   14.3818 C.3     1  UNL1        0.0172
     20 N          64.6399   91.9575   14.0880 N.3     1  UNL1       -0.3211
     21 C          65.3021   90.6186   13.9510 C.3     1  UNL1        0.0651
     22 H          65.2699   92.6846   13.7494 H       1  UNL1        0.1189
     23 H          64.4189   92.1287   15.0690 H       1  UNL1        0.1189
@<TRIPOS>BOND
     1    20    21    1
     2    21    19    1
     3     1    19    1
     4     1     2    1
     5     2     3    1
     6     3     4   ar
     7     4     5   ar
     8     5     6   ar
     9     6     7   ar
    10     7     8   ar
    11     8     9    1
    12     9    11    1
    13    11    12   ar
    14    12    13   ar
    15    13    14   ar
    16    14    15    1
    17    14    16   ar
    18    16    17    1
    19    16    18   ar
    20     9    10    1
    21    10     1    1
    22     8     3   ar
    23    18    11   ar
    24    20    22    1
    25    20    23    1
@<TRIPOS>MOLECULE
*****
 23 25 0 0 0
SMALL
GASTEIGER

@<TRIPOS>ATOM
      1 C          63.1354   83.5241   12.5028 C.3     1  UNL1        0.0064
      2 C          63.8710   84.2687   13.5772 C.3     1  UNL1        0.0261
      3 C          63.8550   85.7685   13.5959 C.ar    1  UNL1       -0.0258
      4 C          64.5906   86.5131   14.6703 C.ar    1  UNL1       -0.0046
      5 C          64.5745   88.0129   14.6889 C.ar    1  UNL1       -0.0003
      6 C          63.8229   88.7681   13.6331 C.ar    1  UNL1       -0.0003
      7 C          63.0873   88.0235   12.5587 C.ar    1  UNL1       -0.0043
      8 C          63.1033   86.5237   12.5401 C.ar    1  UNL1       -0.0224
      9 C          62.3677   85.7790   11.4656 C.3     1  UNL1        0.0443
     10 C          62.3837   84.2793   11.4470 C.3     1  UNL1        0.0091
     11 C          61.6160   86.5342   10.4098 C.ar    1  UNL1       -0.0175
     12 C          61.3124   85.8817    9.0937 C.ar    1  UNL1       -0.0030
     13 C          60.5607   86.6368    8.0379 C.ar    1  UNL1        0.0119
     14 C          60.1127   88.0445    8.2982 C.ar    1  UNL1        0.0682
     15 CL         59.3610   88.7997    7.2424 Cl      1  UNL1       -0.0814
     16 C          60.4163   88.6970    9.6143 C.ar    1  UNL1        0.0679
     17 CL         59.9682   90.1047    9.8746 Cl      1  UNL1       -0.0814
     18 C          61.1680   87.9418   10.6701 C.ar    1  UNL1        0.0083
     19 C          63.1515   82.0242   12.4842 C.3     1  UNL1        0.0172
     20 N          61.9907   81.3881   14.7197 N.3     1  UNL1       -0.3211
     21 C          62.1027   81.2537   13.2300 C.3     1  UNL1        0.0651
     22 H          61.2304   80.7984   15.0581 H       1  UNL1        0.1189
     23 H          61.7992   82.3608   14.9598 H       1  UNL1        0.1189
@<TRIPOS>BOND
     1    20    21    1
     2    21    19    1
     3     1    19    1
     4     1     2    1
     5     2     3    1
     6     3     4   ar
     7     4     5   ar
     8     5     6   ar
     9     6     7   ar
    10     7     8   ar
    11     8     9    1
    12     9    11    1
    13    11    12   ar
    14    12    13   ar
    15    13    14   ar
    16    14    15    1
    17    14    16   ar
    18    16    17    1
    19    16    18   ar
    20     9    10    1
    21    10     1    1
    22     8     3   ar
    23    18    11   ar
    24    20    22    1
    25    20    23    1
@<TRIPOS>MOLECULE
*****
 23 25 0 0 0
SMALL
GASTEIGER

@<TRIPOS>ATOM
      1 C          65.3299   92.7561   11.0265 C.3     1  UNL1        0.0064
      2 C          65.6221   92.6694   12.4951 C.3     1  UNL1        0.0261
      3 C          64.8630   91.7029   13.3552 C.ar    1  UNL1       -0.0258
      4 C          65.1552   91.6162   14.8238 C.ar    1  UNL1       -0.0046
      5 C          64.3961   90.6497   15.6838 C.ar    1  UNL1       -0.0003
      6 C          63.3447   89.7699   15.0750 C.ar    1  UNL1       -0.0003
      7 C          63.0524   89.8566   13.6064 C.ar    1  UNL1       -0.0043
      8 C          63.8116   90.8231   12.7464 C.ar    1  UNL1       -0.0224
      9 C          63.5193   90.9098   11.2777 C.3     1  UNL1        0.0443
     10 C          64.2785   91.8763   10.4177 C.3     1  UNL1        0.0091
     11 C          62.4680   90.0300   10.6690 C.ar    1  UNL1       -0.0175
     12 C          61.0560   90.5219   10.5486 C.ar    1  UNL1       -0.0030
     13 C          60.0046   89.6421    9.9399 C.ar    1  UNL1        0.0119
     14 C          60.3652   88.2704    9.4515 C.ar    1  UNL1        0.0682
     15 CL         59.3138   87.3906    8.8428 Cl      1  UNL1       -0.0814
     16 C          61.7771   87.7786    9.5719 C.ar    1  UNL1        0.0679
     17 CL         62.1377   86.4069    9.0835 Cl      1  UNL1       -0.0814
     18 C          62.8285   88.6584   10.1806 C.ar    1  UNL1        0.0083
     19 C          66.0890   93.7227   10.1664 C.3     1  UNL1        0.0172
     20 N          68.4484   94.4567    9.3637 N.3     1  UNL1       -0.3211
     21 C          67.4614   93.3706    9.6741 C.3     1  UNL1        0.0651
     22 H          69.3228   94.0402    9.0437 H       1  UNL1        0.1189
     23 H          68.6220   95.0085   10.2038 H       1  UNL1        0.1189
@<TRIPOS>BOND
     1    20    21    1
     2    21    19    1
     3     1    19    1
     4     1     2    1
     5     2     3    1
     6     3     4   ar
     7     4     5   ar
     8     5     6   ar
     9     6     7   ar
    10     7     8   ar
    11     8     9    1
    12     9    11    1
    13    11    12   ar
    14    12    13   ar
    15    13    14   ar
    16    14    15    1
    17    14    16   ar
    18    16    17    1
    19    16    18   ar
    20     9    10    1
    21    10     1    1
    22     8     3   ar
    23    18    11   ar
    24    20    22    1
    25    20    23    1
