@<TRIPOS>MOLECULE
*****
 31 35 0 0 0
SMALL
GASTEIGER

@<TRIPOS>ATOM
      1 C          58.1407   93.2921   -0.7328 C.ar    1  UNL1        0.1028
      2 C          58.4597   93.3970    0.7292 C.ar    1  UNL1        0.0131
      3 C          59.7784   93.9594    1.1706 C.ar    1  UNL1       -0.0015
      4 C          60.9950   94.5053    0.4025 C.ar    1  UNL1        0.0035
      5 C          59.8727   94.0382   -0.4763 C.ar    1  UNL1        0.0358
      6 C          59.1405   93.7496   -1.7532 C.ar    1  UNL1        0.1545
      7 O          58.9097   93.6834   -3.2339 O.3     1  UNL1       -0.4528
      8 C          59.2157   93.8498   -4.6929 C.ar    1  UNL1        0.1451
      9 C          58.2702   93.4645   -5.7918 C.ar    1  UNL1        0.0375
     10 C          58.6632   93.6681   -7.2250 C.ar    1  UNL1        0.0029
     11 C          60.0017   94.2569   -7.5593 C.ar    1  UNL1       -0.0024
     12 C          60.9472   94.6421   -6.4604 C.ar    1  UNL1        0.0007
     13 C          60.5542   94.4386   -5.0272 C.ar    1  UNL1        0.0349
     14 C          62.5331   95.3415   -6.9325 C.3     1  UNL1        0.1203
     15 N          63.8747   95.9160   -6.5857 N.am    1  UNL1       -0.2743
     16 C          65.1176   96.4701   -7.2167 C.3     1  UNL1        0.0957
     17 C          66.0631   96.8554   -6.1177 C.3     1  UNL1        0.0466
     18 C          65.7292   96.6717   -4.4300 C.3     1  UNL1        0.1337
     19 N          65.9600   96.7379   -2.9494 N.3     1  UNL1       -0.2863
     20 C          65.6541   96.5715   -1.4903 C.3     1  UNL1        0.1151
     21 C          64.8580   96.1980   -0.2751 C.ar    1  UNL1        0.0739
     22 C          65.9144   96.6344    0.6962 C.ar    1  UNL1        0.1147
     23 N          65.4024   96.3802    2.0830 N.ar    1  UNL1       -0.2226
     24 C          64.0295   95.7868    1.9687 C.ar    1  UNL1        0.1786
     25 N          63.6930   95.6742    0.5113 N.ar    1  UNL1       -0.3070
     26 C          62.3365   95.0797    0.7492 C.3     1  UNL1        0.1341
     27 C          64.9970   96.3831   -5.7069 C.2     1  UNL1        0.2402
     28 O          65.3909   96.5695   -6.3745 O.2     1  UNL1       -0.2734
     29 H          66.1684   97.7356   -2.9101 H       1  UNL1        0.1240
     30 N          55.5034   92.1674   -1.6158 N.1     1  UNL1       -0.1907
     31 C          56.8221   92.7298   -1.1743 C.1     1  UNL1        0.1035
@<TRIPOS>BOND
     1    30    31    3
     2    31     1    1
     3     1     2   ar
     4     2     3   ar
     5     3     4   ar
     6     4     5   ar
     7     5     6   ar
     8     6     7    1
     9     7     8    1
    10     8     9   ar
    11     9    10   ar
    12    10    11   ar
    13    11    12   ar
    14    12    13   ar
    15    12    14    1
    16    14    15    1
    17    15    16    1
    18    16    17    1
    19    18    17    1
    20    18    19    1
    21    19    20    1
    22    20    21    1
    23    21    22   ar
    24    22    23   ar
    25    23    24   ar
    26    24    25   ar
    27    25    26    1
    28    18    27    1
    29    27    28    2
    30     6     1   ar
    31    13     8   ar
    32    27    15   am
    33    26     4    1
    34    25    21   ar
    35    19    29    1
@<TRIPOS>MOLECULE
*****
 31 35 0 0 0
SMALL
GASTEIGER

@<TRIPOS>ATOM
      1 C          62.7781   81.2982   12.7579 C.ar    1  UNL1        0.1028
      2 C          62.8331   80.9490   14.2157 C.ar    1  UNL1        0.0131
      3 C          62.8648   82.0378   15.2470 C.ar    1  UNL1       -0.0015
      4 C          62.8529   83.5737   15.1505 C.ar    1  UNL1        0.0035
      5 C          62.8084   82.8744   13.8242 C.ar    1  UNL1        0.0358
      6 C          62.7547   82.7362   12.3316 C.ar    1  UNL1        0.1545
      7 O          62.7001   83.1801   10.8998 O.3     1  UNL1       -0.4528
      8 C          62.6529   84.1384    9.7468 C.ar    1  UNL1        0.1451
      9 C          62.6028   83.7115    8.3098 C.ar    1  UNL1        0.0375
     10 C          62.5575   84.7432    7.2220 C.ar    1  UNL1        0.0029
     11 C          62.5623   86.2020    7.5713 C.ar    1  UNL1       -0.0024
     12 C          62.6124   86.6290    9.0083 C.ar    1  UNL1        0.0007
     13 C          62.6577   85.5972   10.0961 C.ar    1  UNL1        0.0349
     14 C          62.6155   88.3918    9.3543 C.3     1  UNL1        0.1203
     15 N          62.6441   89.5457   10.3123 N.am    1  UNL1       -0.2743
     16 C          62.6374   91.0452   10.3508 C.3     1  UNL1        0.0957
     17 C          62.6875   91.4722   11.7879 C.3     1  UNL1        0.0466
     18 C          62.7424   90.3832   13.1313 C.3     1  UNL1        0.1337
     19 N          62.7970   89.9393   14.5630 N.3     1  UNL1       -0.2863
     20 C          62.8442   88.9810   15.7160 C.3     1  UNL1        0.1151
     21 C          62.8769   87.6539   16.4145 C.ar    1  UNL1        0.0739
     22 C          62.9239   88.2470   17.7915 C.ar    1  UNL1        0.1147
     23 N          62.9660   87.1199   18.7804 N.ar    1  UNL1       -0.2226
     24 C          62.9451   85.8303   18.0146 C.ar    1  UNL1        0.1786
     25 N          62.8900   86.1603   16.5523 N.ar    1  UNL1       -0.3070
     26 C          62.8816   84.7275   16.1085 C.3     1  UNL1        0.1341
     27 C          62.6887   90.2450   11.6386 C.2     1  UNL1        0.2402
     28 O          62.6702   90.9316   11.2339 O.2     1  UNL1       -0.2734
     29 H          61.9721   90.4525   14.8739 H       1  UNL1        0.1240
     30 N          62.7147   79.1208   10.6952 N.1     1  UNL1       -0.1907
     31 C          62.7464   80.2095   11.7266 C.1     1  UNL1        0.1035
@<TRIPOS>BOND
     1    30    31    3
     2    31     1    1
     3     1     2   ar
     4     2     3   ar
     5     3     4   ar
     6     4     5   ar
     7     5     6   ar
     8     6     7    1
     9     7     8    1
    10     8     9   ar
    11     9    10   ar
    12    10    11   ar
    13    11    12   ar
    14    12    13   ar
    15    12    14    1
    16    14    15    1
    17    15    16    1
    18    16    17    1
    19    18    17    1
    20    18    19    1
    21    19    20    1
    22    20    21    1
    23    21    22   ar
    24    22    23   ar
    25    23    24   ar
    26    24    25   ar
    27    25    26    1
    28    18    27    1
    29    27    28    2
    30     6     1   ar
    31    13     8   ar
    32    27    15   am
    33    26     4    1
    34    25    21   ar
    35    19    29    1
