@<TRIPOS>MOLECULE
*****
 32 35 0 0 0
SMALL
GASTEIGER

@<TRIPOS>ATOM
      1 C          65.2622   92.0117   12.4307 C.ar    1  UNL1       -0.0004
      2 C          64.9094   91.1705   13.6214 C.ar    1  UNL1       -0.0024
      3 C          63.7678   90.2007   13.5428 C.ar    1  UNL1       -0.0002
      4 C          62.9790   90.0720   12.2735 C.ar    1  UNL1        0.0030
      5 C          61.8374   89.1022   12.1949 C.ar    1  UNL1        0.0369
      6 C          61.0486   88.9735   10.9256 C.ar    1  UNL1        0.1386
      7 C          61.4015   89.8147    9.7348 C.ar    1  UNL1        0.0369
      8 C          62.5431   90.7845    9.8133 C.ar    1  UNL1        0.0031
      9 C          63.3318   90.9132   11.0827 C.ar    1  UNL1       -0.0001
     10 C          64.4734   91.8830   11.1613 C.ar    1  UNL1       -0.0024
     11 C          66.4038   92.9815   12.5092 C.3     1  UNL1        0.1240
     12 N          67.2984   92.9910   13.7132 N.ar    1  UNL1       -0.3045
     13 C          67.1671   93.8962   14.9021 C.ar    1  UNL1        0.0983
     14 C          68.2689   93.5615   15.8634 C.ar    1  UNL1        0.1193
     15 N          69.0811   92.4495   15.2687 N.ar    1  UNL1       -0.2223
     16 C          68.4813   92.0969   13.9398 C.ar    1  UNL1        0.1788
     17 C          66.0368   95.3101   11.4169 C.3     1  UNL1        0.0197
     18 C          66.6508   93.9419   11.3838 C.3     1  UNL1        0.0827
     19 N          67.5118   93.5341   10.2252 N.3     1  UNL1       -0.2696
     20 C          67.7799   94.5035    9.1122 C.3     1  UNL1        0.0897
     21 C          68.1047   92.1571   10.1794 C.3     1  UNL1        0.0897
     22 O          59.9070   88.0037   10.8470 O.3     1  UNL1       -0.4751
     23 C          59.7851   87.0826    9.6693 C.3     1  UNL1        0.2105
     24 C          60.9531   86.2383    9.2534 C.3     1  UNL1        0.0772
     25 C          61.1372   86.2223   10.7421 C.3     1  UNL1        0.0410
     26 C          62.2844   85.4695   11.3479 C.3     1  UNL1        0.1426
     27 O          63.2476   84.7326   10.4651 O.3     1  UNL1       -0.3538
     28 C          63.0635   84.7486    8.9765 C.3     1  UNL1        0.1426
     29 C          61.9163   85.5014    8.3707 C.3     1  UNL1        0.0410
     30 C          60.3634   86.5475    7.9094 C.2     1  UNL1        0.0533
     31 O          59.8727   87.9321    7.6062 O.co2   1  UNL1       -0.5491
     32 O          60.2644   85.4720    6.8684 O.co2   1  UNL1       -0.5491
@<TRIPOS>UNITY_ATOM_ATTR
31 1
charge -1
@<TRIPOS>BOND
     1    18    17    1
     2    18    11    1
     3    11     1    1
     4     1     2   ar
     5     2     3   ar
     6     3     4   ar
     7     4     5   ar
     8     5     6   ar
     9     6    22    1
    10    22    23    1
    11    23    24    1
    12    24    30    1
    13    30    31   ar
    14    30    32   ar
    15    24    25    1
    16    25    26    1
    17    26    27    1
    18    27    28    1
    19    28    29    1
    20     6     7   ar
    21     7     8   ar
    22     8     9   ar
    23     9    10   ar
    24    11    12    1
    25    12    13   ar
    26    13    14   ar
    27    14    15   ar
    28    15    16   ar
    29    18    19    1
    30    19    20    1
    31    19    21    1
    32    10     1   ar
    33    16    12   ar
    34     9     4   ar
    35    29    24    1
@<TRIPOS>MOLECULE
*****
 32 35 0 0 0
SMALL
GASTEIGER

@<TRIPOS>ATOM
      1 C          63.5231   85.2194   13.5438 C.ar    1  UNL1       -0.0004
      2 C          64.3416   85.6509   14.7243 C.ar    1  UNL1       -0.0024
      3 C          64.6629   87.1024   14.9239 C.ar    1  UNL1       -0.0002
      4 C          64.1658   88.1223   13.9428 C.ar    1  UNL1        0.0030
      5 C          64.4872   89.5739   14.1424 C.ar    1  UNL1        0.0369
      6 C          63.9901   90.5939   13.1613 C.ar    1  UNL1        0.1386
      7 C          63.1716   90.1623   11.9807 C.ar    1  UNL1        0.0369
      8 C          62.8502   88.7108   11.7811 C.ar    1  UNL1        0.0031
      9 C          63.3473   87.6908   12.7622 C.ar    1  UNL1       -0.0001
     10 C          63.0260   86.2393   12.5627 C.ar    1  UNL1       -0.0024
     11 C          63.2017   83.7678   13.3442 C.3     1  UNL1        0.1240
     12 N          63.5566   83.0917   12.0531 N.ar    1  UNL1       -0.3045
     13 C          62.7622   82.0158   11.3738 C.ar    1  UNL1        0.0983
     14 C          63.4828   81.6320   10.1154 C.ar    1  UNL1        0.1193
     15 N          64.7225   82.4707   10.0170 N.ar    1  UNL1       -0.2223
     16 C          64.7681   83.3728   11.2145 C.ar    1  UNL1        0.1788
     17 C          62.0450   83.6973   15.6695 C.3     1  UNL1        0.0197
     18 C          62.5255   82.9924   14.4357 C.3     1  UNL1        0.0827
     19 N          62.3298   81.5120   14.2935 N.3     1  UNL1       -0.2696
     20 C          63.5182   80.5969   14.2736 C.3     1  UNL1        0.0897
     21 C          60.9458   80.9469   14.1711 C.3     1  UNL1        0.0897
     22 O          64.3114   92.0454   13.3608 O.3     1  UNL1       -0.4751
     23 C          65.6053   92.6045   12.8477 C.3     1  UNL1        0.2105
     24 C          66.8574   92.4667   13.6621 C.3     1  UNL1        0.0772
     25 C          65.8563   92.6833   14.7581 C.3     1  UNL1        0.0410
     26 C          66.3039   92.7034   16.1895 C.3     1  UNL1        0.1426
     27 O          67.7527   92.5070   16.5252 O.3     1  UNL1       -0.3538
     28 C          68.7537   92.2905   15.4293 C.3     1  UNL1        0.1426
     29 C          68.3061   92.2704   13.9978 C.3     1  UNL1        0.0410
     30 C          67.4236   92.2981   12.2834 C.2     1  UNL1        0.0533
     31 O          68.7801   91.6848   12.0996 O.co2   1  UNL1       -0.5491
     32 O          66.6333   92.7427   11.0885 O.co2   1  UNL1       -0.5491
@<TRIPOS>UNITY_ATOM_ATTR
31 1
charge -1
@<TRIPOS>BOND
     1    18    17    1
     2    18    11    1
     3    11     1    1
     4     1     2   ar
     5     2     3   ar
     6     3     4   ar
     7     4     5   ar
     8     5     6   ar
     9     6    22    1
    10    22    23    1
    11    23    24    1
    12    24    30    1
    13    30    31   ar
    14    30    32   ar
    15    24    25    1
    16    25    26    1
    17    26    27    1
    18    27    28    1
    19    28    29    1
    20     6     7   ar
    21     7     8   ar
    22     8     9   ar
    23     9    10   ar
    24    11    12    1
    25    12    13   ar
    26    13    14   ar
    27    14    15   ar
    28    15    16   ar
    29    18    19    1
    30    19    20    1
    31    19    21    1
    32    10     1   ar
    33    16    12   ar
    34     9     4   ar
    35    29    24    1
@<TRIPOS>MOLECULE
*****
 32 35 0 0 0
SMALL
GASTEIGER

@<TRIPOS>ATOM
      1 C          65.2012   91.8863   12.5050 C.ar    1  UNL1       -0.0004
      2 C          64.9809   90.9036   13.6166 C.ar    1  UNL1       -0.0024
      3 C          63.8958   89.8742   13.5034 C.ar    1  UNL1       -0.0002
      4 C          63.0310   89.8276   12.2787 C.ar    1  UNL1        0.0030
      5 C          61.9458   88.7982   12.1656 C.ar    1  UNL1        0.0369
      6 C          61.0810   88.7515   10.9409 C.ar    1  UNL1        0.1386
      7 C          61.3014   89.7343    9.8293 C.ar    1  UNL1        0.0369
      8 C          62.3865   90.7637    9.9424 C.ar    1  UNL1        0.0031
      9 C          63.2513   90.8103   11.1672 C.ar    1  UNL1       -0.0001
     10 C          64.3364   91.8397   11.2803 C.ar    1  UNL1       -0.0024
     11 C          66.2864   92.9158   12.6181 C.3     1  UNL1        0.1240
     12 N          66.5434   93.8623   11.4833 N.ar    1  UNL1       -0.3045
     13 C          66.2224   95.3275   11.4673 C.ar    1  UNL1        0.0983
     14 C          66.6472   95.8807   10.1393 C.ar    1  UNL1        0.1193
     15 N          67.2307   94.7574    9.3345 N.ar    1  UNL1       -0.2223
     16 C          67.1666   93.5100   10.1651 C.ar    1  UNL1        0.1788
     17 C          66.5609   93.6649   15.0907 C.3     1  UNL1        0.0197
     18 C          67.1145   92.9986   13.8661 C.3     1  UNL1        0.0827
     19 N          68.4962   92.4151   13.8894 N.3     1  UNL1       -0.2696
     20 C          68.9644   91.5504   12.7567 C.3     1  UNL1        0.0897
     21 C          69.4096   92.6963   15.0455 C.3     1  UNL1        0.0897
     22 O          59.9958   87.7222   10.8277 O.3     1  UNL1       -0.4751
     23 C          59.8922   86.8740    9.5949 C.3     1  UNL1        0.2105
     24 C          61.0726   86.0702    9.1361 C.3     1  UNL1        0.0772
     25 C          61.2671   85.9941   10.6215 C.3     1  UNL1        0.0410
     26 C          62.4321   85.2376   11.1876 C.3     1  UNL1        0.1426
     27 O          63.4027   84.5571   10.2682 O.3     1  UNL1       -0.3538
     28 C          63.2081   84.6333    8.7829 C.3     1  UNL1        0.1426
     29 C          62.0432   85.3898    8.2168 C.3     1  UNL1        0.0410
     30 C          60.4682   86.4255    7.8101 C.2     1  UNL1        0.0533
     31 O          60.0019   87.8272    7.5498 O.co2   1  UNL1       -0.5491
     32 O          60.3301   85.3790    6.7443 O.co2   1  UNL1       -0.5491
@<TRIPOS>UNITY_ATOM_ATTR
31 1
charge -1
@<TRIPOS>BOND
     1    18    17    1
     2    18    11    1
     3    11     1    1
     4     1     2   ar
     5     2     3   ar
     6     3     4   ar
     7     4     5   ar
     8     5     6   ar
     9     6    22    1
    10    22    23    1
    11    23    24    1
    12    24    30    1
    13    30    31   ar
    14    30    32   ar
    15    24    25    1
    16    25    26    1
    17    26    27    1
    18    27    28    1
    19    28    29    1
    20     6     7   ar
    21     7     8   ar
    22     8     9   ar
    23     9    10   ar
    24    11    12    1
    25    12    13   ar
    26    13    14   ar
    27    14    15   ar
    28    15    16   ar
    29    18    19    1
    30    19    20    1
    31    19    21    1
    32    10     1   ar
    33    16    12   ar
    34     9     4   ar
    35    29    24    1
@<TRIPOS>MOLECULE
*****
 32 35 0 0 0
SMALL
GASTEIGER

@<TRIPOS>ATOM
      1 C          65.3683   92.1214   12.5209 C.ar    1  UNL1       -0.0004
      2 C          65.1877   91.1303   13.6322 C.ar    1  UNL1       -0.0024
      3 C          64.1659   90.0395   13.5056 C.ar    1  UNL1       -0.0002
      4 C          63.3247   89.9399   12.2677 C.ar    1  UNL1        0.0030
      5 C          62.3028   88.8490   12.1411 C.ar    1  UNL1        0.0369
      6 C          61.4616   88.7494   10.9032 C.ar    1  UNL1        0.1386
      7 C          61.6422   89.7406    9.7919 C.ar    1  UNL1        0.0369
      8 C          62.6641   90.8313    9.9185 C.ar    1  UNL1        0.0031
      9 C          63.5053   90.9310   11.1564 C.ar    1  UNL1       -0.0001
     10 C          64.5271   92.0217   11.2830 C.ar    1  UNL1       -0.0024
     11 C          66.3901   93.2122   12.6475 C.3     1  UNL1        0.1240
     12 N          66.5431   94.2272   11.5537 N.ar    1  UNL1       -0.3045
     13 C          67.1639   93.9879   10.2093 C.ar    1  UNL1        0.0983
     14 C          67.1066   95.2724    9.4369 C.ar    1  UNL1        0.1193
     15 N          66.4504   96.3057   10.3039 N.ar    1  UNL1       -0.2223
     16 C          66.1021   95.6597   11.6121 C.ar    1  UNL1        0.1788
     17 C          66.8686   94.1756   15.0125 C.3     1  UNL1        0.0197
     18 C          67.2589   93.2881   13.8679 C.3     1  UNL1        0.0827
     19 N          68.5181   92.4765   13.9437 N.3     1  UNL1       -0.2696
     20 C          69.3507   92.4986   15.1913 C.3     1  UNL1        0.0897
     21 C          68.9447   91.6427   12.7721 C.3     1  UNL1        0.0897
     22 O          60.4398   87.6586   10.7766 O.3     1  UNL1       -0.4751
     23 C          60.8582   86.2224   10.8873 C.3     1  UNL1        0.2105
     24 C          61.6806   85.5949    9.8011 C.3     1  UNL1        0.0772
     25 C          60.5938   86.2193    8.9771 C.3     1  UNL1        0.0410
     26 C          60.6076   86.0751    7.4842 C.3     1  UNL1        0.1426
     27 O          61.7084   85.3064    6.8151 O.3     1  UNL1       -0.3538
     28 C          62.7952   84.6820    7.6391 C.3     1  UNL1        0.1426
     29 C          62.7813   84.8263    9.1321 C.3     1  UNL1        0.0410
     30 C          62.4818   85.1884   11.0023 C.2     1  UNL1        0.0533
     31 O          63.7067   84.3391   10.8344 O.co2   1  UNL1       -0.5491
     32 O          62.0581   85.6313   12.3714 O.co2   1  UNL1       -0.5491
@<TRIPOS>UNITY_ATOM_ATTR
31 1
charge -1
@<TRIPOS>BOND
     1    18    17    1
     2    18    11    1
     3    11     1    1
     4     1     2   ar
     5     2     3   ar
     6     3     4   ar
     7     4     5   ar
     8     5     6   ar
     9     6    22    1
    10    22    23    1
    11    23    24    1
    12    24    30    1
    13    30    31   ar
    14    30    32   ar
    15    24    25    1
    16    25    26    1
    17    26    27    1
    18    27    28    1
    19    28    29    1
    20     6     7   ar
    21     7     8   ar
    22     8     9   ar
    23     9    10   ar
    24    11    12    1
    25    12    13   ar
    26    13    14   ar
    27    14    15   ar
    28    15    16   ar
    29    18    19    1
    30    19    20    1
    31    19    21    1
    32    10     1   ar
    33    16    12   ar
    34     9     4   ar
    35    29    24    1
@<TRIPOS>MOLECULE
*****
 32 35 0 0 0
SMALL
GASTEIGER

@<TRIPOS>ATOM
      1 C          63.5084   85.7508   12.8765 C.ar    1  UNL1       -0.0004
      2 C          64.2329   85.6917   14.1886 C.ar    1  UNL1       -0.0024
      3 C          64.6348   86.9600   14.8812 C.ar    1  UNL1       -0.0002
      4 C          64.3121   88.2875   14.2618 C.ar    1  UNL1        0.0030
      5 C          64.7140   89.5559   14.9545 C.ar    1  UNL1        0.0369
      6 C          64.3913   90.8834   14.3351 C.ar    1  UNL1        0.1386
      7 C          63.6667   90.9424   13.0230 C.ar    1  UNL1        0.0369
      8 C          63.2648   89.6741   12.3303 C.ar    1  UNL1        0.0031
      9 C          63.5875   88.3466   12.9497 C.ar    1  UNL1       -0.0001
     10 C          63.1857   87.0783   12.2571 C.ar    1  UNL1       -0.0024
     11 C          63.1065   84.4824   12.1838 C.3     1  UNL1        0.1240
     12 N          62.6140   83.3139   12.9851 N.ar    1  UNL1       -0.3045
     13 C          62.3334   81.9383   12.4571 C.ar    1  UNL1        0.0983
     14 C          61.8617   81.0900   13.6007 C.ar    1  UNL1        0.1193
     15 N          61.8508   81.9414   14.8356 N.ar    1  UNL1       -0.2223
     16 C          62.3158   83.3158   14.4552 C.ar    1  UNL1        0.1788
     17 C          64.1089   83.3720   10.0596 C.3     1  UNL1        0.0197
     18 C          63.1970   84.3826   10.6899 C.3     1  UNL1        0.0827
     19 N          62.3757   85.2934    9.8262 N.3     1  UNL1       -0.2696
     20 C          62.8321   85.6213    8.4355 C.3     1  UNL1        0.0897
     21 C          61.0980   85.8762   10.3533 C.3     1  UNL1        0.0897
     22 O          64.7932   92.1517   15.0277 O.3     1  UNL1       -0.4751
     23 C          65.7758   93.0814   14.3794 C.3     1  UNL1        0.2105
     24 C          66.9565   92.5271   13.6387 C.3     1  UNL1        0.0772
     25 C          66.1065   92.9656   12.4831 C.3     1  UNL1        0.0410
     26 C          66.5900   92.7643   11.0776 C.3     1  UNL1        0.1426
     27 O          67.9236   92.1245   10.8275 O.3     1  UNL1       -0.3538
     28 C          68.7735   91.6861   11.9831 C.3     1  UNL1        0.1426
     29 C          68.2900   91.8873   13.3886 C.3     1  UNL1        0.0410
     30 C          67.3964   92.2811   15.0515 C.2     1  UNL1        0.0533
     31 O          67.8439   90.9120   15.4701 O.co2   1  UNL1       -0.5491
     32 O          67.3887   93.4043   16.0457 O.co2   1  UNL1       -0.5491
@<TRIPOS>UNITY_ATOM_ATTR
31 1
charge -1
@<TRIPOS>BOND
     1    18    17    1
     2    18    11    1
     3    11     1    1
     4     1     2   ar
     5     2     3   ar
     6     3     4   ar
     7     4     5   ar
     8     5     6   ar
     9     6    22    1
    10    22    23    1
    11    23    24    1
    12    24    30    1
    13    30    31   ar
    14    30    32   ar
    15    24    25    1
    16    25    26    1
    17    26    27    1
    18    27    28    1
    19    28    29    1
    20     6     7   ar
    21     7     8   ar
    22     8     9   ar
    23     9    10   ar
    24    11    12    1
    25    12    13   ar
    26    13    14   ar
    27    14    15   ar
    28    15    16   ar
    29    18    19    1
    30    19    20    1
    31    19    21    1
    32    10     1   ar
    33    16    12   ar
    34     9     4   ar
    35    29    24    1
@<TRIPOS>MOLECULE
*****
 32 35 0 0 0
SMALL
GASTEIGER

@<TRIPOS>ATOM
      1 C          62.3943   87.8982   10.8268 C.ar    1  UNL1       -0.0004
      2 C          62.3578   89.1777   10.0449 C.ar    1  UNL1       -0.0024
      3 C          62.9568   90.4262   10.6213 C.ar    1  UNL1       -0.0002
      4 C          63.5924   90.3951   11.9797 C.ar    1  UNL1        0.0030
      5 C          64.1915   91.6437   12.5561 C.ar    1  UNL1        0.0369
      6 C          64.8270   91.6127   13.9145 C.ar    1  UNL1        0.1386
      7 C          64.8635   90.3330   14.6964 C.ar    1  UNL1        0.0369
      8 C          64.2644   89.0846   14.1199 C.ar    1  UNL1        0.0031
      9 C          63.6289   89.1156   12.7616 C.ar    1  UNL1       -0.0001
     10 C          63.0298   87.8671   12.1851 C.ar    1  UNL1       -0.0024
     11 C          61.7952   86.6496   10.2503 C.3     1  UNL1        0.1240
     12 N          60.6296   86.7416    9.3106 N.ar    1  UNL1       -0.3045
     13 C          60.4619   85.9696    8.0356 C.ar    1  UNL1        0.0983
     14 C          59.1558   86.3727    7.4179 C.ar    1  UNL1        0.1193
     15 N          58.5162   87.3939    8.3113 N.ar    1  UNL1       -0.2223
     16 C          59.4271   87.6219    9.4810 C.ar    1  UNL1        0.1788
     17 C          62.0590   84.7048   11.9527 C.3     1  UNL1        0.0197
     18 C          62.3617   85.3090   10.6135 C.3     1  UNL1        0.0827
     19 N          63.2308   84.5727    9.6377 N.3     1  UNL1       -0.2696
     20 C          63.3701   85.0739    8.2307 C.3     1  UNL1        0.0897
     21 C          63.9607   83.3352   10.0687 C.3     1  UNL1        0.0897
     22 O          65.4261   92.8612   14.4909 O.3     1  UNL1       -0.4751
     23 C          66.7346   93.3758   13.9682 C.3     1  UNL1        0.2105
     24 C          67.1489   93.0761   12.5581 C.3     1  UNL1        0.0772
     25 C          66.1017   94.1200   12.3056 C.3     1  UNL1        0.0410
     26 C          65.7826   94.5378   10.9008 C.3     1  UNL1        0.1426
     27 O          66.5108   93.9117    9.7484 O.3     1  UNL1       -0.3538
     28 C          67.5579   92.8679   10.0009 C.3     1  UNL1        0.1426
     29 C          67.8770   92.4501   11.4057 C.3     1  UNL1        0.0410
     30 C          68.0522   92.1364   13.3003 C.2     1  UNL1        0.0533
     31 O          69.0510   91.3064   12.5497 O.co2   1  UNL1       -0.5491
     32 O          67.9566   92.0265   14.7933 O.co2   1  UNL1       -0.5491
@<TRIPOS>UNITY_ATOM_ATTR
31 1
charge -1
@<TRIPOS>BOND
     1    18    17    1
     2    18    11    1
     3    11     1    1
     4     1     2   ar
     5     2     3   ar
     6     3     4   ar
     7     4     5   ar
     8     5     6   ar
     9     6    22    1
    10    22    23    1
    11    23    24    1
    12    24    30    1
    13    30    31   ar
    14    30    32   ar
    15    24    25    1
    16    25    26    1
    17    26    27    1
    18    27    28    1
    19    28    29    1
    20     6     7   ar
    21     7     8   ar
    22     8     9   ar
    23     9    10   ar
    24    11    12    1
    25    12    13   ar
    26    13    14   ar
    27    14    15   ar
    28    15    16   ar
    29    18    19    1
    30    19    20    1
    31    19    21    1
    32    10     1   ar
    33    16    12   ar
    34     9     4   ar
    35    29    24    1
@<TRIPOS>MOLECULE
*****
 32 35 0 0 0
SMALL
GASTEIGER

@<TRIPOS>ATOM
      1 C          63.0586   85.2314   12.7971 C.ar    1  UNL1       -0.0004
      2 C          62.4328   85.9450   11.6356 C.ar    1  UNL1       -0.0024
      3 C          62.5378   87.4374   11.5274 C.ar    1  UNL1       -0.0002
      4 C          63.2687   88.2161   12.5807 C.ar    1  UNL1        0.0030
      5 C          63.3738   89.7085   12.4725 C.ar    1  UNL1        0.0369
      6 C          64.1047   90.4873   13.5258 C.ar    1  UNL1        0.1386
      7 C          64.7305   89.7735   14.6873 C.ar    1  UNL1        0.0369
      8 C          64.6254   88.2812   14.7954 C.ar    1  UNL1        0.0031
      9 C          63.8945   87.5024   13.7422 C.ar    1  UNL1       -0.0001
     10 C          63.7895   86.0101   13.8504 C.ar    1  UNL1       -0.0024
     11 C          62.9535   83.7389   12.9053 C.3     1  UNL1        0.1240
     12 N          63.3732   82.8722   11.7553 N.ar    1  UNL1       -0.3045
     13 C          62.6896   81.6162   11.3024 C.ar    1  UNL1        0.0983
     14 C          63.4441   81.0770   10.1234 C.ar    1  UNL1        0.1193
     15 N          64.5941   81.9997    9.8476 N.ar    1  UNL1       -0.2223
     16 C          64.5503   83.1092   10.8562 C.ar    1  UNL1        0.1788
     17 C          62.0163   83.9797   15.3165 C.3     1  UNL1        0.0197
     18 C          62.4287   83.1133   14.1635 C.3     1  UNL1        0.0827
     19 N          62.3163   81.6212   14.2689 N.3     1  UNL1       -0.2696
     20 C          60.9672   80.9664   14.2335 C.3     1  UNL1        0.0897
     21 C          63.5529   80.7840   14.4096 C.3     1  UNL1        0.0897
     22 O          64.2098   91.9796   13.4176 O.3     1  UNL1       -0.4751
     23 C          65.4367   92.6039   12.8216 C.3     1  UNL1        0.2105
     24 C          66.7612   92.4612   13.5111 C.3     1  UNL1        0.0772
     25 C          65.8836   92.7565   14.6913 C.3     1  UNL1        0.0410
     26 C          66.4756   92.8238   16.0679 C.3     1  UNL1        0.1426
     27 O          67.9452   92.5957   16.2643 O.3     1  UNL1       -0.3538
     28 C          68.8226   92.3004   15.0841 C.3     1  UNL1        0.1426
     29 C          68.2307   92.2332   13.7076 C.3     1  UNL1        0.0410
     30 C          67.1787   92.2154   12.0915 C.2     1  UNL1        0.0533
     31 O          66.1710   92.3172   10.9851 O.co2   1  UNL1       -0.5491
     32 O          68.6039   91.8679   11.7784 O.co2   1  UNL1       -0.5491
@<TRIPOS>UNITY_ATOM_ATTR
31 1
charge -1
@<TRIPOS>BOND
     1    18    17    1
     2    18    11    1
     3    11     1    1
     4     1     2   ar
     5     2     3   ar
     6     3     4   ar
     7     4     5   ar
     8     5     6   ar
     9     6    22    1
    10    22    23    1
    11    23    24    1
    12    24    30    1
    13    30    31   ar
    14    30    32   ar
    15    24    25    1
    16    25    26    1
    17    26    27    1
    18    27    28    1
    19    28    29    1
    20     6     7   ar
    21     7     8   ar
    22     8     9   ar
    23     9    10   ar
    24    11    12    1
    25    12    13   ar
    26    13    14   ar
    27    14    15   ar
    28    15    16   ar
    29    18    19    1
    30    19    20    1
    31    19    21    1
    32    10     1   ar
    33    16    12   ar
    34     9     4   ar
    35    29    24    1
@<TRIPOS>MOLECULE
*****
 32 35 0 0 0
SMALL
GASTEIGER

@<TRIPOS>ATOM
      1 C          62.5037   87.7553   10.6886 C.ar    1  UNL1       -0.0004
      2 C          62.4331   89.0944   10.0166 C.ar    1  UNL1       -0.0024
      3 C          62.9227   90.3190   10.7312 C.ar    1  UNL1       -0.0002
      4 C          63.4831   90.2044   12.1179 C.ar    1  UNL1        0.0030
      5 C          63.9727   91.4290   12.8325 C.ar    1  UNL1        0.0369
      6 C          64.5331   91.3144   14.2192 C.ar    1  UNL1        0.1386
      7 C          64.6037   89.9752   14.8913 C.ar    1  UNL1        0.0369
      8 C          64.1140   88.7507   14.1766 C.ar    1  UNL1        0.0031
      9 C          63.5537   88.8652   12.7899 C.ar    1  UNL1       -0.0001
     10 C          63.0640   87.6407   12.0753 C.ar    1  UNL1       -0.0024
     11 C          62.0140   86.5307    9.9740 C.3     1  UNL1        0.1240
     12 N          62.5798   85.1848   10.3184 N.ar    1  UNL1       -0.3045
     13 C          62.3223   84.4171   11.5811 C.ar    1  UNL1        0.0983
     14 C          63.0857   83.1282   11.5037 C.ar    1  UNL1        0.1193
     15 N          63.8150   83.0994   10.1932 N.ar    1  UNL1       -0.2223
     16 C          63.5023   84.3704    9.4607 C.ar    1  UNL1        0.1788
     17 C          61.0164   85.7807    7.6954 C.3     1  UNL1        0.0197
     18 C          60.9587   86.6520    8.9151 C.3     1  UNL1        0.0827
     19 N          59.8455   87.6445    9.0757 N.3     1  UNL1       -0.2696
     20 C          59.3948   88.0504   10.4477 C.3     1  UNL1        0.0897
     21 C          59.1832   88.2312    7.8645 C.3     1  UNL1        0.0897
     22 O          65.0227   92.5389   14.9338 O.3     1  UNL1       -0.4751
     23 C          66.1416   93.3504   14.3509 C.3     1  UNL1        0.2105
     24 C          67.2376   92.6737   13.5824 C.3     1  UNL1        0.0772
     25 C          66.3978   93.1799   12.4472 C.3     1  UNL1        0.0410
     26 C          66.8136   92.9152   11.0305 C.3     1  UNL1        0.1426
     27 O          68.0692   92.1442   10.7489 O.3     1  UNL1       -0.3538
     28 C          68.9088   91.6380   11.8841 C.3     1  UNL1        0.1426
     29 C          68.4931   91.9027   13.3008 C.3     1  UNL1        0.0410
     30 C          67.6967   92.4024   14.9844 C.2     1  UNL1        0.0533
     31 O          67.9524   93.5435   15.9238 O.co2   1  UNL1       -0.5491
     32 O          67.9000   90.9901   15.4470 O.co2   1  UNL1       -0.5491
@<TRIPOS>UNITY_ATOM_ATTR
31 1
charge -1
@<TRIPOS>BOND
     1    18    17    1
     2    18    11    1
     3    11     1    1
     4     1     2   ar
     5     2     3   ar
     6     3     4   ar
     7     4     5   ar
     8     5     6   ar
     9     6    22    1
    10    22    23    1
    11    23    24    1
    12    24    30    1
    13    30    31   ar
    14    30    32   ar
    15    24    25    1
    16    25    26    1
    17    26    27    1
    18    27    28    1
    19    28    29    1
    20     6     7   ar
    21     7     8   ar
    22     8     9   ar
    23     9    10   ar
    24    11    12    1
    25    12    13   ar
    26    13    14   ar
    27    14    15   ar
    28    15    16   ar
    29    18    19    1
    30    19    20    1
    31    19    21    1
    32    10     1   ar
    33    16    12   ar
    34     9     4   ar
    35    29    24    1
@<TRIPOS>MOLECULE
*****
 32 35 0 0 0
SMALL
GASTEIGER

@<TRIPOS>ATOM
      1 C          63.5058   85.4635   12.8088 C.ar    1  UNL1       -0.0004
      2 C          64.2489   85.4306   14.1113 C.ar    1  UNL1       -0.0024
      3 C          64.5947   86.7121   14.8101 C.ar    1  UNL1       -0.0002
      4 C          64.1974   88.0264   14.2062 C.ar    1  UNL1        0.0030
      5 C          64.5431   89.3079   14.9050 C.ar    1  UNL1        0.0369
      6 C          64.1458   90.6223   14.3012 C.ar    1  UNL1        0.1386
      7 C          63.4027   90.6551   12.9986 C.ar    1  UNL1        0.0369
      8 C          63.0570   89.3736   12.2998 C.ar    1  UNL1        0.0031
      9 C          63.4543   88.0593   12.9037 C.ar    1  UNL1       -0.0001
     10 C          63.1085   86.7778   12.2049 C.ar    1  UNL1       -0.0024
     11 C          63.1601   84.1820   12.1100 C.3     1  UNL1        0.1240
     12 N          62.6541   83.0106   12.8986 N.ar    1  UNL1       -0.3045
     13 C          62.3716   81.6400   12.3585 C.ar    1  UNL1        0.0983
     14 C          61.8848   80.7865   13.4919 C.ar    1  UNL1        0.1193
     15 N          61.8665   81.6295   14.7324 N.ar    1  UNL1       -0.2223
     16 C          62.3420   83.0041   14.3657 C.ar    1  UNL1        0.1788
     17 C          64.2564   83.0536   10.0424 C.3     1  UNL1        0.0197
     18 C          63.3202   84.0719   10.6227 C.3     1  UNL1        0.0827
     19 N          62.5441   84.9801    9.7155 N.3     1  UNL1       -0.2696
     20 C          63.0527   85.2749    8.3354 C.3     1  UNL1        0.0897
     21 C          61.2596   85.5935   10.1884 C.3     1  UNL1        0.0897
     22 O          64.4916   91.9037   14.9999 O.3     1  UNL1       -0.4751
     23 C          65.3214   92.9392   14.3004 C.3     1  UNL1        0.2105
     24 C          66.8147   92.8034   14.2626 C.3     1  UNL1        0.0772
     25 C          66.5708   92.5903   15.7273 C.3     1  UNL1        0.0410
     26 C          67.7248   92.3319   16.6500 C.3     1  UNL1        0.1426
     27 O          69.1228   92.2865   16.1081 O.3     1  UNL1       -0.3538
     28 C          69.3667   92.4995   14.6435 C.3     1  UNL1        0.1426
     29 C          68.2127   92.7580   13.7208 C.3     1  UNL1        0.0410
     30 C          66.5400   93.0636   12.8112 C.2     1  UNL1        0.0533
     31 O          66.5366   94.4697   12.2888 O.co2   1  UNL1       -0.5491
     32 O          66.2687   91.9177   11.8820 O.co2   1  UNL1       -0.5491
@<TRIPOS>UNITY_ATOM_ATTR
31 1
charge -1
@<TRIPOS>BOND
     1    18    17    1
     2    18    11    1
     3    11     1    1
     4     1     2   ar
     5     2     3   ar
     6     3     4   ar
     7     4     5   ar
     8     5     6   ar
     9     6    22    1
    10    22    23    1
    11    23    24    1
    12    24    30    1
    13    30    31   ar
    14    30    32   ar
    15    24    25    1
    16    25    26    1
    17    26    27    1
    18    27    28    1
    19    28    29    1
    20     6     7   ar
    21     7     8   ar
    22     8     9   ar
    23     9    10   ar
    24    11    12    1
    25    12    13   ar
    26    13    14   ar
    27    14    15   ar
    28    15    16   ar
    29    18    19    1
    30    19    20    1
    31    19    21    1
    32    10     1   ar
    33    16    12   ar
    34     9     4   ar
    35    29    24    1
