@<TRIPOS>MOLECULE
*****
 37 41 0 0 0
SMALL
GASTEIGER

@<TRIPOS>ATOM
      1 C          60.5016   94.7133   -3.4233 C.3     1  UNL1        0.0419
      2 C          61.2887   95.7689   -2.7047 C.3     1  UNL1        0.0741
      3 C          61.4125   95.6770   -2.6747 C.3     1  UNL1        0.0904
      4 C          61.4872   96.3484   -1.3355 C.3     1  UNL1        0.0386
      5 C          62.5531   95.9533   -0.3569 C.3     1  UNL1        0.0594
      6 C          63.7303   95.2674    0.2706 C.3     1  UNL1        0.0174
      7 C          64.2594   94.2640   -0.7108 C.3     1  UNL1        0.0174
      8 C          63.4092   94.3296   -1.9448 C.3     1  UNL1        0.0594
      9 C          62.4036   94.6104   -3.0353 C.3     1  UNL1        0.0386
     10 N          62.3546   95.3737   -1.7261 N.3     1  UNL1       -0.2750
     11 C          58.4167   96.7324   -1.9258 C.3     1  UNL1        0.0738
     12 C          58.9695   96.5572   -3.3092 C.ar    1  UNL1        0.1433
     13 N          58.2425   96.8364   -4.5912 N.ar    1  UNL1       -0.1337
     14 N          59.1702   96.5238   -5.7277 N.ar    1  UNL1       -0.1337
     15 C          60.4705   96.0515   -5.1482 C.ar    1  UNL1        0.1425
     16 N          60.3466   96.0721   -3.6534 N.ar    1  UNL1       -0.3039
     17 C          61.6822   95.6321   -5.9267 C.3     1  UNL1        0.0588
     18 C          62.8847   96.5270   -5.9822 C.3     1  UNL1        0.0080
     19 C          61.6913   94.3178   -6.6496 C.3     1  UNL1        0.0080
     20 C          59.7589   93.6700   -2.6425 C.3     1  UNL1        0.1014
     21 C          58.3899   93.2395   -3.0790 C.ar    1  UNL1        0.0251
     22 C          57.2753   92.7975   -2.1777 C.ar    1  UNL1        0.0043
     23 C          56.0917   92.4604   -3.0353 C.ar    1  UNL1        0.0072
     24 C          56.4748   92.6941   -4.4666 C.ar    1  UNL1        0.0352
     25 S          57.8951   93.1756   -4.4937 S.2     1  UNL1       -0.0892
     26 N          60.3851   93.0569   -1.4250 N.am    1  UNL1       -0.3017
     27 C          59.9322   93.4748   -0.0575 C.2     1  UNL1        0.2222
     28 O          58.8530   94.5058    0.0927 O.2     1  UNL1       -0.2751
     29 H          61.0934   92.3802   -1.5236 H       1  UNL1        0.1497
     30 C          60.5584   92.8618    1.1599 C.3     1  UNL1        0.0769
     31 C          59.7907   92.7984    2.4470 C.3     1  UNL1        0.0147
     32 C          60.4169   92.1853    3.6644 C.3     1  UNL1        0.0671
     33 C          61.8108   91.6356    3.5946 C.3     1  UNL1        0.2640
     34 F          63.0927   90.9855    4.0237 F       1  UNL1       -0.2043
     35 F          61.4882   91.3465    5.0307 F       1  UNL1       -0.2043
     36 C          62.5785   91.6990    2.3075 C.3     1  UNL1        0.0671
     37 C          61.9523   92.3120    1.0902 C.3     1  UNL1        0.0147
@<TRIPOS>BOND
     1    11    12    1
     2    12    13   ar
     3    13    14   ar
     4    14    15   ar
     5    15    17    1
     6    17    18    1
     7    17    19    1
     8    15    16   ar
     9     3    16    1
    10     3     4    1
    11     5     4    1
    12     5     6    1
    13     6     7    1
    14     8     7    1
    15     8     9    1
    16     8    10    1
    17    10     2    1
    18     2     1    1
    19    20     1    1
    20    20    26    1
    21    26    27   am
    22    27    28    2
    23    27    30    1
    24    30    31    1
    25    31    32    1
    26    32    33    1
    27    33    34    1
    28    33    35    1
    29    33    36    1
    30    36    37    1
    31    20    21    1
    32    21    22   ar
    33    22    23   ar
    34    23    24   ar
    35    24    25   ar
    36    16    12   ar
    37     9     3    1
    38    37    30    1
    39    25    21   ar
    40    10     5    1
    41    26    29    1
@<TRIPOS>MOLECULE
*****
 37 41 0 0 0
SMALL
GASTEIGER

@<TRIPOS>ATOM
      1 C          57.7261   95.0918   -3.7165 C.3     1  UNL1        0.0419
      2 C          57.7300   96.3352   -2.8775 C.3     1  UNL1        0.0741
      3 C          57.8829   96.3528   -2.8463 C.3     1  UNL1        0.0904
      4 C          57.4966   96.4431   -1.3997 C.3     1  UNL1        0.0386
      5 C          58.5525   96.6379   -0.3523 C.3     1  UNL1        0.0594
      6 C          59.8829   96.8256    0.3146 C.3     1  UNL1        0.0174
      7 C          60.9385   96.8337   -0.7510 C.3     1  UNL1        0.0174
      8 C          60.2605   96.6510   -2.0765 C.3     1  UNL1        0.0594
      9 C          59.3250   96.4572   -3.2454 C.3     1  UNL1        0.0386
     10 N          58.7859   96.5300   -1.8301 N.3     1  UNL1       -0.2750
     11 C          58.3231   96.5511   -6.0738 C.3     1  UNL1        0.0738
     12 C          57.0293   96.2492   -5.3773 C.ar    1  UNL1        0.1433
     13 N          55.7107   95.9854   -6.0420 N.ar    1  UNL1       -0.1337
     14 N          54.6936   95.7313   -4.9694 N.ar    1  UNL1       -0.1337
     15 C          55.3833   95.8379   -3.6417 C.ar    1  UNL1        0.1425
     16 N          56.8269   96.1580   -3.8938 N.ar    1  UNL1       -0.3039
     17 C          54.7422   95.6564   -2.2979 C.3     1  UNL1        0.0588
     18 C          54.5266   94.2768   -1.7500 C.3     1  UNL1        0.0080
     19 C          54.3165   96.8544   -1.5018 C.3     1  UNL1        0.0080
     20 C          57.5941   93.7475   -3.0644 C.3     1  UNL1        0.1014
     21 C          56.8862   92.6340   -3.7779 C.ar    1  UNL1        0.0251
     22 C          56.2627   91.4307   -3.1351 C.ar    1  UNL1        0.0043
     23 C          55.6688   90.5813   -4.2194 C.ar    1  UNL1        0.0072
     24 C          55.9252   91.2598   -5.5324 C.ar    1  UNL1        0.0352
     25 S          56.6776   92.5284   -5.2596 S.2     1  UNL1       -0.0892
     26 N          58.1699   93.5166   -1.6986 N.am    1  UNL1       -0.3017
     27 C          59.6382   93.2552   -1.5381 C.2     1  UNL1        0.2222
     28 O          60.5307   93.2247   -2.7433 O.2     1  UNL1       -0.2751
     29 H          57.5841   93.5366   -0.9076 H       1  UNL1        0.1497
     30 C          60.2140   93.0242   -0.1724 C.3     1  UNL1        0.0769
     31 C          59.3239   93.0694    1.0341 C.3     1  UNL1        0.0147
     32 C          59.8997   92.8384    2.3999 C.3     1  UNL1        0.0671
     33 C          61.3655   92.5624    2.5590 C.3     1  UNL1        0.2640
     34 F          62.6808   92.2662    3.2165 F       1  UNL1       -0.2043
     35 F          60.9322   92.5047    3.9939 F       1  UNL1       -0.2043
     36 C          62.2555   92.5172    1.3524 C.3     1  UNL1        0.0671
     37 C          61.6797   92.7481   -0.0133 C.3     1  UNL1        0.0147
@<TRIPOS>BOND
     1    11    12    1
     2    12    13   ar
     3    13    14   ar
     4    14    15   ar
     5    15    17    1
     6    17    18    1
     7    17    19    1
     8    15    16   ar
     9     3    16    1
    10     3     4    1
    11     5     4    1
    12     5     6    1
    13     6     7    1
    14     8     7    1
    15     8     9    1
    16     8    10    1
    17    10     2    1
    18     2     1    1
    19    20     1    1
    20    20    26    1
    21    26    27   am
    22    27    28    2
    23    27    30    1
    24    30    31    1
    25    31    32    1
    26    32    33    1
    27    33    34    1
    28    33    35    1
    29    33    36    1
    30    36    37    1
    31    20    21    1
    32    21    22   ar
    33    22    23   ar
    34    23    24   ar
    35    24    25   ar
    36    16    12   ar
    37     9     3    1
    38    37    30    1
    39    25    21   ar
    40    10     5    1
    41    26    29    1
@<TRIPOS>MOLECULE
*****
 37 41 0 0 0
SMALL
GASTEIGER

@<TRIPOS>ATOM
      1 C          58.8216   94.5053   -4.2283 C.3     1  UNL1        0.0419
      2 C          59.3170   95.8553   -3.8017 C.3     1  UNL1        0.0741
      3 C          59.4679   95.8191   -3.8264 C.3     1  UNL1        0.0904
      4 C          59.7874   96.6841   -2.6433 C.3     1  UNL1        0.0386
      5 C          61.2108   96.8557   -2.2024 C.3     1  UNL1        0.0594
      6 C          62.7045   96.7409   -2.1265 C.3     1  UNL1        0.0174
      7 C          63.1573   95.8411   -3.2380 C.3     1  UNL1        0.0174
      8 C          61.9435   95.3999   -4.0009 C.3     1  UNL1        0.0594
      9 C          60.5717   95.1257   -4.5685 C.3     1  UNL1        0.0386
     10 N          60.7405   96.0269   -3.3608 N.3     1  UNL1       -0.2750
     11 C          56.8332   95.9732   -1.9068 C.3     1  UNL1        0.0738
     12 C          56.8334   95.7183   -3.3850 C.ar    1  UNL1        0.1433
     13 N          55.6226   95.4894   -4.2404 N.ar    1  UNL1       -0.1337
     14 N          56.0853   95.2771   -5.6513 N.ar    1  UNL1       -0.1337
     15 C          57.5820   95.3748   -5.6680 C.ar    1  UNL1        0.1425
     16 N          58.0444   95.6474   -4.2673 N.ar    1  UNL1       -0.3039
     17 C          58.4619   95.2259   -6.8737 C.3     1  UNL1        0.0588
     18 C          59.1010   96.4351   -7.4897 C.3     1  UNL1        0.0080
     19 C          58.7028   93.8679   -7.4634 C.3     1  UNL1        0.0080
     20 C          58.8145   93.3662   -3.2524 C.3     1  UNL1        0.1014
     21 C          57.6221   92.4603   -3.1657 C.ar    1  UNL1        0.0251
     22 C          56.7484   92.2654   -1.9621 C.ar    1  UNL1        0.0043
     23 C          55.6805   91.2748   -2.3200 C.ar    1  UNL1        0.0072
     24 C          55.8941   90.8574   -3.7448 C.ar    1  UNL1        0.0352
     25 S          57.0941   91.5901   -4.2676 S.2     1  UNL1       -0.0892
     26 N          59.9998   93.1330   -2.3631 N.am    1  UNL1       -0.3017
     27 C          59.9448   93.5355   -0.9192 C.2     1  UNL1        0.2222
     28 O          58.7045   94.1712   -0.3645 O.2     1  UNL1       -0.2751
     29 H          60.8138   92.7158   -2.7272 H       1  UNL1        0.1497
     30 C          61.1300   93.3023   -0.0299 C.3     1  UNL1        0.0769
     31 C          62.5004   93.7085   -0.4849 C.3     1  UNL1        0.0147
     32 C          63.6857   93.4753    0.4044 C.3     1  UNL1        0.0671
     33 C          63.5005   92.8358    1.7485 C.3     1  UNL1        0.2640
     34 F          63.8312   92.2691    3.0974 F       1  UNL1       -0.2043
     35 F          64.9858   93.0452    1.7620 F       1  UNL1       -0.2043
     36 C          62.1301   92.4296    2.2035 C.3     1  UNL1        0.0671
     37 C          60.9449   92.6628    1.3142 C.3     1  UNL1        0.0147
@<TRIPOS>BOND
     1    11    12    1
     2    12    13   ar
     3    13    14   ar
     4    14    15   ar
     5    15    17    1
     6    17    18    1
     7    17    19    1
     8    15    16   ar
     9     3    16    1
    10     3     4    1
    11     5     4    1
    12     5     6    1
    13     6     7    1
    14     8     7    1
    15     8     9    1
    16     8    10    1
    17    10     2    1
    18     2     1    1
    19    20     1    1
    20    20    26    1
    21    26    27   am
    22    27    28    2
    23    27    30    1
    24    30    31    1
    25    31    32    1
    26    32    33    1
    27    33    34    1
    28    33    35    1
    29    33    36    1
    30    36    37    1
    31    20    21    1
    32    21    22   ar
    33    22    23   ar
    34    23    24   ar
    35    24    25   ar
    36    16    12   ar
    37     9     3    1
    38    37    30    1
    39    25    21   ar
    40    10     5    1
    41    26    29    1
@<TRIPOS>MOLECULE
*****
 37 41 0 0 0
SMALL
GASTEIGER

@<TRIPOS>ATOM
      1 C          62.6513   83.8710   12.2541 C.3     1  UNL1        0.0419
      2 C          63.5299   83.5477   13.4261 C.3     1  UNL1        0.0741
      3 C          63.4514   83.6158   13.5439 C.3     1  UNL1        0.0904
      4 C          64.7417   84.2866   13.9112 C.3     1  UNL1        0.0386
      5 C          64.7955   85.2162   15.0872 C.3     1  UNL1        0.0594
      6 C          64.3959   86.0267   16.2844 C.3     1  UNL1        0.0174
      7 C          62.9370   85.7887   16.5393 C.3     1  UNL1        0.0174
      8 C          62.4349   84.8311   15.4995 C.3     1  UNL1        0.0594
      9 C          62.2148   83.8744   14.3526 C.3     1  UNL1        0.0386
     10 N          63.5836   84.4772   14.6021 N.3     1  UNL1       -0.2750
     11 C          64.9108   84.0816   10.6624 C.3     1  UNL1        0.0738
     12 C          64.0684   82.9003   11.0433 C.ar    1  UNL1        0.1433
     13 N          63.7489   81.7258   10.1667 N.ar    1  UNL1       -0.1337
     14 N          62.8807   80.7859   10.9494 N.ar    1  UNL1       -0.1337
     15 C          62.6636   81.3793   12.3097 C.ar    1  UNL1        0.1425
     16 N          63.3976   82.6862   12.3678 N.ar    1  UNL1       -0.3039
     17 C          61.8545   80.7726   13.4175 C.3     1  UNL1        0.0588
     18 C          60.4946   81.3182   13.7386 C.3     1  UNL1        0.0080
     19 C          62.4051   79.6202   14.2042 C.3     1  UNL1        0.0080
     20 C          62.5762   85.2776   11.7386 C.3     1  UNL1        0.1014
     21 C          61.9426   85.5558   10.4077 C.ar    1  UNL1        0.0251
     22 C          62.5464   85.2656    9.0657 C.ar    1  UNL1        0.0043
     23 C          61.5709   85.7036    8.0139 C.ar    1  UNL1        0.0072
     24 C          60.3640   86.2646    8.7058 C.ar    1  UNL1        0.0352
     25 S          60.5937   86.1733   10.1853 S.2     1  UNL1       -0.0892
     26 N          63.1347   86.4061   12.5539 N.am    1  UNL1       -0.3017
     27 C          63.0918   87.8082   12.0225 C.2     1  UNL1        0.2222
     28 O          62.4904   88.0818   10.6758 O.2     1  UNL1       -0.2751
     29 H          63.5294   86.2265   13.4377 H       1  UNL1        0.1497
     30 C          63.6502   88.9366   12.8377 C.3     1  UNL1        0.0769
     31 C          64.0955   88.6933   14.2493 C.3     1  UNL1        0.0147
     32 C          64.6540   89.8218   15.0647 C.3     1  UNL1        0.0671
     33 C          64.7672   91.1935   14.4683 C.3     1  UNL1        0.2640
     34 F          65.0718   92.6573   14.3477 F       1  UNL1       -0.2043
     35 F          65.3183   91.4585   15.8380 F       1  UNL1       -0.2043
     36 C          64.3219   91.4368   13.0567 C.3     1  UNL1        0.0671
     37 C          63.7635   90.3083   12.2415 C.3     1  UNL1        0.0147
@<TRIPOS>BOND
     1    11    12    1
     2    12    13   ar
     3    13    14   ar
     4    14    15   ar
     5    15    17    1
     6    17    18    1
     7    17    19    1
     8    15    16   ar
     9     3    16    1
    10     3     4    1
    11     5     4    1
    12     5     6    1
    13     6     7    1
    14     8     7    1
    15     8     9    1
    16     8    10    1
    17    10     2    1
    18     2     1    1
    19    20     1    1
    20    20    26    1
    21    26    27   am
    22    27    28    2
    23    27    30    1
    24    30    31    1
    25    31    32    1
    26    32    33    1
    27    33    34    1
    28    33    35    1
    29    33    36    1
    30    36    37    1
    31    20    21    1
    32    21    22   ar
    33    22    23   ar
    34    23    24   ar
    35    24    25   ar
    36    16    12   ar
    37     9     3    1
    38    37    30    1
    39    25    21   ar
    40    10     5    1
    41    26    29    1
@<TRIPOS>MOLECULE
*****
 37 41 0 0 0
SMALL
GASTEIGER

@<TRIPOS>ATOM
      1 C          60.4068   94.8611   -3.5709 C.3     1  UNL1        0.0419
      2 C          61.4598   95.7473   -2.9743 C.3     1  UNL1        0.0741
      3 C          61.3818   95.8121   -2.8543 C.3     1  UNL1        0.0904
      4 C          62.5276   95.3883   -1.9839 C.3     1  UNL1        0.0386
      5 C          62.5069   95.6938   -0.5155 C.3     1  UNL1        0.0594
      6 C          62.0748   96.1900    0.8325 C.3     1  UNL1        0.0174
      7 C          60.7398   96.8557    0.6752 C.3     1  UNL1        0.0174
      8 C          60.3469   96.7709   -0.7700 C.3     1  UNL1        0.0594
      9 C          60.2154   96.5414   -2.2563 C.3     1  UNL1        0.0386
     10 N          61.4391   96.0528   -1.5058 N.3     1  UNL1       -0.2750
     11 C          59.2159   96.8553   -5.0611 C.3     1  UNL1        0.0738
     12 C          60.4069   95.9861   -5.3371 C.ar    1  UNL1        0.1433
     13 N          60.8115   95.4439   -6.6759 N.ar    1  UNL1       -0.1337
     14 N          62.0570   94.6293   -6.4889 N.ar    1  UNL1       -0.1337
     15 C          62.4223   94.6680   -5.0347 C.ar    1  UNL1        0.1425
     16 N          61.4025   95.5066   -4.3228 N.ar    1  UNL1       -0.3039
     17 C          63.6005   93.9877   -4.4031 C.3     1  UNL1        0.0588
     18 C          64.9160   94.7019   -4.3064 C.3     1  UNL1        0.0080
     19 C          63.4633   92.5929   -3.8682 C.3     1  UNL1        0.0080
     20 C          59.7064   93.8478   -2.7151 C.3     1  UNL1        0.1014
     21 C          58.3141   93.4088   -3.0598 C.ar    1  UNL1        0.0251
     22 C          57.8924   92.0146   -3.4181 C.ar    1  UNL1        0.0043
     23 C          56.4168   92.0311   -3.6865 C.ar    1  UNL1        0.0072
     24 C          55.9264   93.4356   -3.4941 C.ar    1  UNL1        0.0352
     25 S          57.0990   94.2871   -3.1068 S.2     1  UNL1       -0.0892
     26 N          60.3982   93.2733   -1.5145 N.am    1  UNL1       -0.3017
     27 C          59.7725   93.3984   -0.1570 C.2     1  UNL1        0.2222
     28 O          58.4550   94.0981   -0.0000 O.2     1  UNL1       -0.2751
     29 H          61.2630   92.8141   -1.6175 H       1  UNL1        0.1497
     30 C          60.4643   92.8240    1.0435 C.3     1  UNL1        0.0769
     31 C          59.7440   92.7426    2.3567 C.3     1  UNL1        0.0147
     32 C          60.4358   92.1681    3.5574 C.3     1  UNL1        0.0671
     33 C          61.8480   91.6750    3.4446 C.3     1  UNL1        0.2640
     34 F          63.1693   91.0821    3.8352 F       1  UNL1       -0.2043
     35 F          61.5865   91.3877    4.8935 F       1  UNL1       -0.2043
     36 C          62.5683   91.7564    2.1314 C.3     1  UNL1        0.0671
     37 C          61.8765   92.3308    0.9309 C.3     1  UNL1        0.0147
@<TRIPOS>BOND
     1    11    12    1
     2    12    13   ar
     3    13    14   ar
     4    14    15   ar
     5    15    17    1
     6    17    18    1
     7    17    19    1
     8    15    16   ar
     9     3    16    1
    10     3     4    1
    11     5     4    1
    12     5     6    1
    13     6     7    1
    14     8     7    1
    15     8     9    1
    16     8    10    1
    17    10     2    1
    18     2     1    1
    19    20     1    1
    20    20    26    1
    21    26    27   am
    22    27    28    2
    23    27    30    1
    24    30    31    1
    25    31    32    1
    26    32    33    1
    27    33    34    1
    28    33    35    1
    29    33    36    1
    30    36    37    1
    31    20    21    1
    32    21    22   ar
    33    22    23   ar
    34    23    24   ar
    35    24    25   ar
    36    16    12   ar
    37     9     3    1
    38    37    30    1
    39    25    21   ar
    40    10     5    1
    41    26    29    1
@<TRIPOS>MOLECULE
*****
 37 41 0 0 0
SMALL
GASTEIGER

@<TRIPOS>ATOM
      1 C          56.8698   94.4939   -4.0587 C.3     1  UNL1        0.0419
      2 C          57.8378   95.6397   -4.0452 C.3     1  UNL1        0.0741
      3 C          57.9509   95.5721   -4.1307 C.3     1  UNL1        0.0904
      4 C          58.9264   96.1275   -3.1358 C.3     1  UNL1        0.0386
      5 C          60.3949   95.8707   -3.3017 C.3     1  UNL1        0.0594
      6 C          61.7055   95.3824   -3.8440 C.3     1  UNL1        0.0174
      7 C          61.4268   94.5928   -5.0885 C.3     1  UNL1        0.0174
      8 C          59.9441   94.5931   -5.3154 C.3     1  UNL1        0.0594
      9 C          58.4439   94.7599   -5.2915 C.3     1  UNL1        0.0386
     10 N          59.3063   95.3828   -4.2111 N.3     1  UNL1       -0.2750
     11 C          56.3933   96.0422   -1.3019 C.3     1  UNL1        0.0738
     12 C          55.7663   96.0450   -2.6646 C.ar    1  UNL1        0.1433
     13 N          54.3135   96.2643   -2.9664 N.ar    1  UNL1       -0.1337
     14 N          54.1316   96.1838   -4.4531 N.ar    1  UNL1       -0.1337
     15 C          55.4719   95.9147   -5.0702 C.ar    1  UNL1        0.1425
     16 N          56.4823   95.8289   -3.9649 N.ar    1  UNL1       -0.3039
     17 C          55.7527   95.7588   -6.5355 C.3     1  UNL1        0.0588
     18 C          56.4475   96.8555   -7.2868 C.3     1  UNL1        0.0080
     19 C          55.3386   94.5062   -7.2494 C.3     1  UNL1        0.0080
     20 C          57.2535   93.1807   -3.4439 C.3     1  UNL1        0.1014
     21 C          56.4270   91.9576   -3.7106 C.ar    1  UNL1        0.0251
     22 C          55.9736   90.9594   -2.6870 C.ar    1  UNL1        0.0043
     23 C          55.1752   89.9030   -3.3916 C.ar    1  UNL1        0.0072
     24 C          55.1352   90.2483   -4.8507 C.ar    1  UNL1        0.0352
     25 S          55.9088   91.5182   -5.0480 S.2     1  UNL1       -0.0892
     26 N          58.4638   93.0903   -2.5623 N.am    1  UNL1       -0.3017
     27 C          58.3029   93.0165   -1.0728 C.2     1  UNL1        0.2222
     28 O          56.9317   93.0331   -0.4648 O.2     1  UNL1       -0.2751
     29 H          59.3638   93.0794   -2.9614 H       1  UNL1        0.1497
     30 C          59.5132   92.9261   -0.1913 C.3     1  UNL1        0.0769
     31 C          59.3580   92.9512    1.3004 C.3     1  UNL1        0.0147
     32 C          60.5683   92.8608    2.1820 C.3     1  UNL1        0.0671
     33 C          61.9337   92.7454    1.5717 C.3     1  UNL1        0.2640
     34 F          63.4251   92.6240    1.4670 F       1  UNL1       -0.2043
     35 F          62.2965   92.7283    3.0271 F       1  UNL1       -0.2043
     36 C          62.0888   92.7203    0.0800 C.3     1  UNL1        0.0671
     37 C          60.8786   92.8107   -0.8015 C.3     1  UNL1        0.0147
@<TRIPOS>BOND
     1    11    12    1
     2    12    13   ar
     3    13    14   ar
     4    14    15   ar
     5    15    17    1
     6    17    18    1
     7    17    19    1
     8    15    16   ar
     9     3    16    1
    10     3     4    1
    11     5     4    1
    12     5     6    1
    13     6     7    1
    14     8     7    1
    15     8     9    1
    16     8    10    1
    17    10     2    1
    18     2     1    1
    19    20     1    1
    20    20    26    1
    21    26    27   am
    22    27    28    2
    23    27    30    1
    24    30    31    1
    25    31    32    1
    26    32    33    1
    27    33    34    1
    28    33    35    1
    29    33    36    1
    30    36    37    1
    31    20    21    1
    32    21    22   ar
    33    22    23   ar
    34    23    24   ar
    35    24    25   ar
    36    16    12   ar
    37     9     3    1
    38    37    30    1
    39    25    21   ar
    40    10     5    1
    41    26    29    1
@<TRIPOS>MOLECULE
*****
 37 41 0 0 0
SMALL
GASTEIGER

@<TRIPOS>ATOM
      1 C          63.8791   89.4596   13.3250 C.3     1  UNL1        0.0419
      2 C          62.8818   90.4475   12.7963 C.3     1  UNL1        0.0741
      3 C          62.8659   90.4298   12.6410 C.3     1  UNL1        0.0904
      4 C          61.4544   90.0021   12.9145 C.3     1  UNL1        0.0386
      5 C          60.5523   89.6221   11.7779 C.3     1  UNL1        0.0594
      6 C          60.0371   89.3455   10.3965 C.3     1  UNL1        0.0174
      7 C          61.1462   89.6199    9.4246 C.3     1  UNL1        0.0174
      8 C          62.3468   90.0661   10.2052 C.3     1  UNL1        0.0594
      9 C          63.3753   90.4774   11.2310 C.3     1  UNL1        0.0386
     10 N          61.9798   90.0675   11.6596 N.3     1  UNL1       -0.2750
     11 C          62.3465   89.7899   15.7987 C.3     1  UNL1        0.0738
     12 C          63.5292   90.5157   15.2291 C.ar    1  UNL1        0.1433
     13 N          64.6809   91.0748   16.0108 N.ar    1  UNL1       -0.1337
     14 N          65.6313   91.7144   15.0426 N.ar    1  UNL1       -0.1337
     15 C          65.0671   91.5507   13.6625 C.ar    1  UNL1        0.1425
     16 N          63.7680   90.8098   13.7777 N.ar    1  UNL1       -0.3039
     17 C          65.6923   92.0416   12.3904 C.3     1  UNL1        0.0588
     18 C          64.8842   92.8538   11.4223 C.3     1  UNL1        0.0080
     19 C          67.1257   91.7204   12.0864 C.3     1  UNL1        0.0080
     20 C          63.7205   87.9990   13.0225 C.3     1  UNL1        0.1014
     21 C          63.8562   86.9865   14.1209 C.ar    1  UNL1        0.0251
     22 C          63.6119   87.2310   15.5806 C.ar    1  UNL1        0.0043
     23 C          63.8648   85.9473   16.3142 C.ar    1  UNL1        0.0072
     24 C          64.2655   84.9095   15.3079 C.ar    1  UNL1        0.0352
     25 S          64.2602   85.5518   13.9524 S.2     1  UNL1       -0.0892
     26 N          63.4262   87.5508   11.6216 N.am    1  UNL1       -0.3017
     27 C          62.3833   86.5016   11.3733 C.2     1  UNL1        0.2222
     28 O          61.6347   85.9007   12.5259 O.2     1  UNL1       -0.2751
     29 H          63.9175   87.9452   10.8651 H       1  UNL1        0.1497
     30 C          62.0891   86.0534    9.9724 C.3     1  UNL1        0.0769
     31 C          63.1578   85.3862    9.1584 C.3     1  UNL1        0.0147
     32 C          62.8635   84.9379    7.7574 C.3     1  UNL1        0.0671
     33 C          61.5005   85.1569    7.1707 C.3     1  UNL1        0.2640
     34 F          60.3727   85.1425    6.1818 F       1  UNL1       -0.2043
     35 F          62.1776   84.4847    6.0132 F       1  UNL1       -0.2043
     36 C          60.4318   85.8242    7.9847 C.3     1  UNL1        0.0671
     37 C          60.7261   86.2724    9.3856 C.3     1  UNL1        0.0147
@<TRIPOS>BOND
     1    11    12    1
     2    12    13   ar
     3    13    14   ar
     4    14    15   ar
     5    15    17    1
     6    17    18    1
     7    17    19    1
     8    15    16   ar
     9     3    16    1
    10     3     4    1
    11     5     4    1
    12     5     6    1
    13     6     7    1
    14     8     7    1
    15     8     9    1
    16     8    10    1
    17    10     2    1
    18     2     1    1
    19    20     1    1
    20    20    26    1
    21    26    27   am
    22    27    28    2
    23    27    30    1
    24    30    31    1
    25    31    32    1
    26    32    33    1
    27    33    34    1
    28    33    35    1
    29    33    36    1
    30    36    37    1
    31    20    21    1
    32    21    22   ar
    33    22    23   ar
    34    23    24   ar
    35    24    25   ar
    36    16    12   ar
    37     9     3    1
    38    37    30    1
    39    25    21   ar
    40    10     5    1
    41    26    29    1
@<TRIPOS>MOLECULE
*****
 37 41 0 0 0
SMALL
GASTEIGER

@<TRIPOS>ATOM
      1 C          61.7455   94.3860   -2.5761 C.3     1  UNL1        0.0419
      2 C          62.8114   95.4367   -2.4771 C.3     1  UNL1        0.0741
      3 C          62.8113   95.5291   -2.3501 C.3     1  UNL1        0.0904
      4 C          63.9548   94.7013   -1.8433 C.3     1  UNL1        0.0386
      5 C          64.5773   95.0154   -0.5151 C.3     1  UNL1        0.0594
      6 C          64.8723   95.6655    0.8041 C.3     1  UNL1        0.0174
      7 C          63.9112   96.8027    0.9856 C.3     1  UNL1        0.0174
      8 C          63.0221   96.8555   -0.2214 C.3     1  UNL1        0.0594
      9 C          62.2901   96.6711   -1.5288 C.3     1  UNL1        0.0386
     10 N          63.4338   95.7508   -1.1490 N.3     1  UNL1       -0.2750
     11 C          60.0816   96.8549   -3.5506 C.3     1  UNL1        0.0738
     12 C          60.9341   95.8245   -4.2301 C.ar    1  UNL1        0.1433
     13 N          60.6816   95.2225   -5.5806 N.ar    1  UNL1       -0.1337
     14 N          61.7801   94.2412   -5.8634 N.ar    1  UNL1       -0.1337
     15 C          62.7116   94.2366   -4.6878 C.ar    1  UNL1        0.1425
     16 N          62.1888   95.2151   -3.6783 N.ar    1  UNL1       -0.3039
     17 C          63.9488   93.4002   -4.5464 C.3     1  UNL1        0.0588
     18 C          65.2511   93.8863   -5.1101 C.3     1  UNL1        0.0080
     19 C          63.8837   92.0778   -3.8413 C.3     1  UNL1        0.0080
     20 C          60.7466   94.2243   -1.4689 C.3     1  UNL1        0.1014
     21 C          61.1528   93.5691   -0.1822 C.ar    1  UNL1        0.0251
     22 C          61.8092   92.2274   -0.0447 C.ar    1  UNL1        0.0043
     23 C          62.0359   91.9696    1.4155 C.ar    1  UNL1        0.0072
     24 C          61.5195   93.1521    2.1805 C.ar    1  UNL1        0.0352
     25 S          60.9737   94.1406    1.1931 S.2     1  UNL1       -0.0892
     26 N          59.3415   94.7179   -1.6483 N.am    1  UNL1       -0.3017
     27 C          58.3558   93.9054   -2.4345 C.2     1  UNL1        0.2222
     28 O          58.7751   92.5993   -3.0415 O.2     1  UNL1       -0.2751
     29 H          59.0662   95.5751   -1.2499 H       1  UNL1        0.1497
     30 C          56.9507   94.3990   -2.6139 C.3     1  UNL1        0.0769
     31 C          55.9613   94.2682   -1.4942 C.3     1  UNL1        0.0147
     32 C          54.5561   94.7618   -1.6735 C.3     1  UNL1        0.0671
     33 C          54.1406   95.3861   -2.9726 C.3     1  UNL1        0.2640
     34 F          53.2773   96.0444   -4.0076 F       1  UNL1       -0.2043
     35 F          52.8513   95.4840   -2.2123 F       1  UNL1       -0.2043
     36 C          55.1301   95.5169   -4.0923 C.3     1  UNL1        0.0671
     37 C          56.5352   95.0233   -3.9130 C.3     1  UNL1        0.0147
@<TRIPOS>BOND
     1    11    12    1
     2    12    13   ar
     3    13    14   ar
     4    14    15   ar
     5    15    17    1
     6    17    18    1
     7    17    19    1
     8    15    16   ar
     9     3    16    1
    10     3     4    1
    11     5     4    1
    12     5     6    1
    13     6     7    1
    14     8     7    1
    15     8     9    1
    16     8    10    1
    17    10     2    1
    18     2     1    1
    19    20     1    1
    20    20    26    1
    21    26    27   am
    22    27    28    2
    23    27    30    1
    24    30    31    1
    25    31    32    1
    26    32    33    1
    27    33    34    1
    28    33    35    1
    29    33    36    1
    30    36    37    1
    31    20    21    1
    32    21    22   ar
    33    22    23   ar
    34    23    24   ar
    35    24    25   ar
    36    16    12   ar
    37     9     3    1
    38    37    30    1
    39    25    21   ar
    40    10     5    1
    41    26    29    1
@<TRIPOS>MOLECULE
*****
 37 41 0 0 0
SMALL
GASTEIGER

@<TRIPOS>ATOM
      1 C          62.1153   94.2266   -2.0086 C.3     1  UNL1        0.0419
      2 C          62.8141   95.3060   -1.2362 C.3     1  UNL1        0.0741
      3 C          62.8512   95.3399   -1.0874 C.3     1  UNL1        0.0904
      4 C          63.7996   94.1791   -1.1418 C.3     1  UNL1        0.0386
      5 C          64.6238   93.8271    0.0611 C.3     1  UNL1        0.0594
      6 C          65.2163   93.8437    1.4390 C.3     1  UNL1        0.0174
      7 C          64.5970   94.9809    2.1961 C.3     1  UNL1        0.0174
      8 C          63.6217   95.6671    1.2862 C.3     1  UNL1        0.0594
      9 C          62.7269   96.1487    0.1697 C.3     1  UNL1        0.0386
     10 N          63.6383   94.9540   -0.0334 N.3     1  UNL1       -0.2750
     11 C          59.9610   96.8550   -1.0556 C.3     1  UNL1        0.0738
     12 C          60.6985   96.3884   -2.2757 C.ar    1  UNL1        0.1433
     13 N          60.2370   96.5362   -3.6952 N.ar    1  UNL1       -0.1337
     14 N          61.2802   95.9312   -4.5871 N.ar    1  UNL1       -0.1337
     15 C          62.3864   95.4094   -3.7189 C.ar    1  UNL1        0.1425
     16 N          62.0269   95.6920   -2.2903 N.ar    1  UNL1       -0.3039
     17 C          63.6333   94.7252   -4.1955 C.3     1  UNL1        0.0588
     18 C          63.5746   93.3025   -4.6671 C.3     1  UNL1        0.0080
     19 C          64.9390   95.4637   -4.2006 C.3     1  UNL1        0.0080
     20 C          61.0102   93.4409   -1.3671 C.3     1  UNL1        0.1014
     21 C          60.9053   93.3771    0.1279 C.ar    1  UNL1        0.0251
     22 C          61.6657   92.4473    1.0263 C.ar    1  UNL1        0.0043
     23 C          61.2518   92.7275    2.4405 C.ar    1  UNL1        0.0072
     24 C          60.2356   93.8306    2.4162 C.ar    1  UNL1        0.0352
     25 S          60.0214   94.2321    0.9869 S.2     1  UNL1       -0.0892
     26 N          60.0099   92.7190   -2.2206 N.am    1  UNL1       -0.3017
     27 C          58.6167   93.2568   -2.3608 C.2     1  UNL1        0.2222
     28 O          58.2237   94.5165   -1.6476 O.2     1  UNL1       -0.2751
     29 H          60.2679   91.8922   -2.6887 H       1  UNL1        0.1497
     30 C          57.6165   92.5348   -3.2142 C.3     1  UNL1        0.0769
     31 C          57.5475   92.8127   -4.6866 C.3     1  UNL1        0.0147
     32 C          56.5473   92.0907   -5.5401 C.3     1  UNL1        0.0671
     33 C          55.6161   91.0910   -4.9210 C.3     1  UNL1        0.2640
     34 F          54.5298   90.0637   -4.7987 F       1  UNL1       -0.2043
     35 F          55.1699   91.0121   -6.3510 F       1  UNL1       -0.2043
     36 C          55.6850   90.8131   -3.4486 C.3     1  UNL1        0.0671
     37 C          56.6852   91.5350   -2.5952 C.3     1  UNL1        0.0147
@<TRIPOS>BOND
     1    11    12    1
     2    12    13   ar
     3    13    14   ar
     4    14    15   ar
     5    15    17    1
     6    17    18    1
     7    17    19    1
     8    15    16   ar
     9     3    16    1
    10     3     4    1
    11     5     4    1
    12     5     6    1
    13     6     7    1
    14     8     7    1
    15     8     9    1
    16     8    10    1
    17    10     2    1
    18     2     1    1
    19    20     1    1
    20    20    26    1
    21    26    27   am
    22    27    28    2
    23    27    30    1
    24    30    31    1
    25    31    32    1
    26    32    33    1
    27    33    34    1
    28    33    35    1
    29    33    36    1
    30    36    37    1
    31    20    21    1
    32    21    22   ar
    33    22    23   ar
    34    23    24   ar
    35    24    25   ar
    36    16    12   ar
    37     9     3    1
    38    37    30    1
    39    25    21   ar
    40    10     5    1
    41    26    29    1
