@<TRIPOS>MOLECULE
*****
 30 33 0 0 0
SMALL
GASTEIGER

@<TRIPOS>ATOM
      1 N          65.5947   92.7202   12.3983 N.pl3   1  UNL1       -0.2996
      2 C          64.3776   91.9025   12.0817 C.3     1  UNL1        0.1208
      3 C          64.3160   90.7658   13.0585 C.ar    1  UNL1        0.0336
      4 C          63.5257   89.5579   13.4665 C.ar    1  UNL1        0.0990
      5 N          64.2162   88.9266   14.6389 N.ar    1  UNL1       -0.2287
      6 N          65.4332   89.7442   14.9555 N.ar    1  UNL1       -0.1681
      7 C          65.4949   90.8810   13.9787 C.ar    1  UNL1        0.0960
      8 C          66.2852   92.0888   13.5707 C.3     1  UNL1        0.1147
      9 C          66.8105   95.1172    9.4784 C.ar    1  UNL1        0.2262
     10 C          66.3627   93.8846   10.2064 C.ar    1  UNL1        0.0722
     11 C          66.0425   93.9528   11.6703 C.ar    1  UNL1        0.0546
     12 C          66.1703   95.2537   12.4061 C.ar    1  UNL1        0.0354
     13 C          66.6181   96.4864   11.6781 C.ar    1  UNL1        0.1033
     14 N          66.9383   96.4181   10.2142 N.ar    1  UNL1       -0.2101
     15 C          66.3855   95.9152    7.0427 C.3     1  UNL1        0.2542
     16 O          67.1307   95.0490    8.0145 O.3     1  UNL1       -0.4561
     17 C          63.7684   87.6939   15.3669 C.ar    1  UNL1        0.0841
     18 C          63.1594   87.8093   16.7329 C.ar    1  UNL1        0.0192
     19 C          62.7115   86.5766   17.4609 C.ar    1  UNL1        0.0029
     20 C          62.8727   85.2286   16.8230 C.ar    1  UNL1        0.0184
     21 C          63.4816   85.1132   15.4570 C.ar    1  UNL1        0.1072
     22 C          63.9295   86.3459   14.7290 C.ar    1  UNL1        0.0375
     23 S          63.6428   83.7653   14.8191 S.O2    1  UNL1        0.0105
     24 C          63.8039   82.4173   14.1811 C.3     1  UNL1        0.1816
     25 O          64.9555   84.1979   14.2364 O.2     1  UNL1       -0.1686
     26 O          62.3300   83.3326   15.4018 O.2     1  UNL1       -0.1686
     27 C          67.5448   92.5793   14.2210 C.3     1  UNL1        0.0221
     28 C          66.7337   93.2258   15.3046 C.3     1  UNL1        0.0020
     29 C          68.3559   91.9327   13.1374 C.3     1  UNL1        0.0020
     30 C          68.8044   93.0697   14.8712 C.3     1  UNL1        0.0020
@<TRIPOS>BOND
     1    15    16    1
     2    16     9    1
     3     9    10   ar
     4    10    11   ar
     5    11     1    1
     6     1     2    1
     7     2     3    1
     8     3     4   ar
     9     4     5   ar
    10     5    17    1
    11    17    18   ar
    12    18    19   ar
    13    19    20   ar
    14    20    21   ar
    15    21    23    1
    16    23    24    1
    17    23    25    2
    18    23    26    2
    19    21    22   ar
    20     5     6   ar
    21     6     7   ar
    22     7     8    1
    23     8    27    1
    24    27    28    1
    25    27    29    1
    26    27    30    1
    27    11    12   ar
    28    12    13   ar
    29    13    14   ar
    30    14     9   ar
    31     8     1    1
    32     7     3   ar
    33    22    17   ar
@<TRIPOS>MOLECULE
*****
 30 33 0 0 0
SMALL
GASTEIGER

@<TRIPOS>ATOM
      1 N          63.0338   84.0996   14.0530 N.pl3   1  UNL1       -0.2996
      2 C          63.3675   84.8329   15.3183 C.3     1  UNL1        0.1208
      3 C          63.7191   86.2455   14.9564 C.ar    1  UNL1        0.0336
      4 C          64.1427   87.5717   15.5148 C.ar    1  UNL1        0.0990
      5 N          64.2881   88.5311   14.3709 N.ar    1  UNL1       -0.2287
      6 N          63.9543   87.7978   13.1056 N.ar    1  UNL1       -0.1681
      7 C          63.6027   86.3852   13.4675 C.ar    1  UNL1        0.0960
      8 C          63.1791   85.0590   12.9091 C.3     1  UNL1        0.1147
      9 C          60.8046   80.8175   14.1439 C.ar    1  UNL1        0.2262
     10 C          61.2121   82.2573   14.2471 C.ar    1  UNL1        0.0722
     11 C          62.6262   82.6598   13.9497 C.ar    1  UNL1        0.0546
     12 C          63.6327   81.6223   13.5491 C.ar    1  UNL1        0.0354
     13 C          63.2252   80.1824   13.4458 C.ar    1  UNL1        0.1033
     14 N          61.8112   79.7800   13.7432 N.ar    1  UNL1       -0.2101
     15 C          59.0137   78.9634   14.4677 C.3     1  UNL1        0.2542
     16 O          59.3904   80.4151   14.4412 O.3     1  UNL1       -0.4561
     17 C          64.6956   89.9710   14.4741 C.ar    1  UNL1        0.0841
     18 C          64.6800   90.6612   15.8058 C.ar    1  UNL1        0.0192
     19 C          65.0876   92.1011   15.9089 C.ar    1  UNL1        0.0029
     20 C          65.5107   92.8508   14.6805 C.ar    1  UNL1        0.0184
     21 C          65.5263   92.1605   13.3489 C.ar    1  UNL1        0.1072
     22 C          65.1188   90.7206   13.2457 C.ar    1  UNL1        0.0375
     23 S          65.9494   92.9101   12.1204 S.O2    1  UNL1        0.0105
     24 C          66.3726   93.6597   10.8920 C.3     1  UNL1        0.1816
     25 O          64.9325   92.1599   11.3123 O.2     1  UNL1       -0.1686
     26 O          66.9665   93.6603   12.9286 O.2     1  UNL1       -0.1686
     27 C          62.9425   84.7470   11.4611 C.3     1  UNL1        0.0221
     28 C          61.7058   85.5957   11.4804 C.3     1  UNL1        0.0020
     29 C          64.1791   83.8983   11.4419 C.3     1  UNL1        0.0020
     30 C          62.7058   84.4350   10.0132 C.3     1  UNL1        0.0020
@<TRIPOS>BOND
     1    15    16    1
     2    16     9    1
     3     9    10   ar
     4    10    11   ar
     5    11     1    1
     6     1     2    1
     7     2     3    1
     8     3     4   ar
     9     4     5   ar
    10     5    17    1
    11    17    18   ar
    12    18    19   ar
    13    19    20   ar
    14    20    21   ar
    15    21    23    1
    16    23    24    1
    17    23    25    2
    18    23    26    2
    19    21    22   ar
    20     5     6   ar
    21     6     7   ar
    22     7     8    1
    23     8    27    1
    24    27    28    1
    25    27    29    1
    26    27    30    1
    27    11    12   ar
    28    12    13   ar
    29    13    14   ar
    30    14     9   ar
    31     8     1    1
    32     7     3   ar
    33    22    17   ar
@<TRIPOS>MOLECULE
*****
 30 33 0 0 0
SMALL
GASTEIGER

@<TRIPOS>ATOM
      1 N          63.1464   84.4754   13.4076 N.pl3   1  UNL1       -0.2996
      2 C          63.8279   85.0412   14.6182 C.3     1  UNL1        0.1208
      3 C          64.0578   86.5042   14.3794 C.ar    1  UNL1        0.0336
      4 C          64.6211   87.7579   14.9801 C.ar    1  UNL1        0.0990
      5 N          64.4298   88.8712   13.9931 N.ar    1  UNL1       -0.2287
      6 N          63.7483   88.3055   12.7826 N.ar    1  UNL1       -0.1681
      7 C          63.5184   86.8425   13.0213 C.ar    1  UNL1        0.0960
      8 C          62.9551   85.5888   12.4206 C.3     1  UNL1        0.1147
      9 C          62.7031   80.8835   11.7795 C.ar    1  UNL1        0.2262
     10 C          63.1200   82.3117   11.9697 C.ar    1  UNL1        0.0722
     11 C          62.7295   83.0472   13.2173 C.ar    1  UNL1        0.0546
     12 C          61.9219   82.3545   14.2746 C.ar    1  UNL1        0.0354
     13 C          61.5049   80.9262   14.0844 C.ar    1  UNL1        0.1033
     14 N          61.8955   80.1907   12.8368 N.ar    1  UNL1       -0.2101
     15 C          62.7353   78.7002   10.3716 C.3     1  UNL1        0.2542
     16 O          63.0936   80.1479   10.5318 O.3     1  UNL1       -0.4561
     17 C          64.8468   90.2994   14.1834 C.ar    1  UNL1        0.0841
     18 C          64.9060   90.8861   15.5626 C.ar    1  UNL1        0.0192
     19 C          65.3230   92.3144   15.7528 C.ar    1  UNL1        0.0029
     20 C          65.6807   93.1560   14.5638 C.ar    1  UNL1        0.0184
     21 C          65.6215   92.5694   13.1845 C.ar    1  UNL1        0.1072
     22 C          65.2045   91.1410   12.9944 C.ar    1  UNL1        0.0375
     23 S          65.9792   93.4109   11.9955 S.O2    1  UNL1        0.0105
     24 C          66.3369   94.2523   10.8064 C.3     1  UNL1        0.1816
     25 O          66.4415   94.5064   12.9098 O.2     1  UNL1       -0.1686
     26 O          65.5168   92.3152   11.0811 O.2     1  UNL1       -0.1686
     27 C          62.3132   85.4693   11.0702 C.3     1  UNL1        0.0221
     28 C          63.4647   84.6326   10.5969 C.3     1  UNL1        0.0020
     29 C          61.1617   86.3059   11.5435 C.3     1  UNL1        0.0020
     30 C          61.6713   85.3497    9.7197 C.3     1  UNL1        0.0020
@<TRIPOS>BOND
     1    15    16    1
     2    16     9    1
     3     9    10   ar
     4    10    11   ar
     5    11     1    1
     6     1     2    1
     7     2     3    1
     8     3     4   ar
     9     4     5   ar
    10     5    17    1
    11    17    18   ar
    12    18    19   ar
    13    19    20   ar
    14    20    21   ar
    15    21    23    1
    16    23    24    1
    17    23    25    2
    18    23    26    2
    19    21    22   ar
    20     5     6   ar
    21     6     7   ar
    22     7     8    1
    23     8    27    1
    24    27    28    1
    25    27    29    1
    26    27    30    1
    27    11    12   ar
    28    12    13   ar
    29    13    14   ar
    30    14     9   ar
    31     8     1    1
    32     7     3   ar
    33    22    17   ar
@<TRIPOS>MOLECULE
*****
 30 33 0 0 0
SMALL
GASTEIGER

@<TRIPOS>ATOM
      1 N          64.5788   91.1045   13.5300 N.pl3   1  UNL1       -0.2996
      2 C          64.3778   91.6200   12.1358 C.3     1  UNL1        0.1208
      3 C          63.3753   90.7361   11.4548 C.ar    1  UNL1        0.0336
      4 C          62.6315   90.5084   10.1722 C.ar    1  UNL1        0.0990
      5 N          61.7533   89.3059   10.3530 N.ar    1  UNL1       -0.2287
      6 N          61.9543   88.7904   11.7472 N.ar    1  UNL1       -0.1681
      7 C          62.9567   89.6743   12.4282 C.ar    1  UNL1        0.0960
      8 C          63.7005   89.9020   13.7107 C.3     1  UNL1        0.1147
      9 C          67.8412   92.5776   15.2436 C.ar    1  UNL1        0.2262
     10 C          66.9232   91.9932   14.2114 C.ar    1  UNL1        0.0722
     11 C          65.4968   91.6889   14.5623 C.ar    1  UNL1        0.0546
     12 C          64.9886   91.9691   15.9455 C.ar    1  UNL1        0.0354
     13 C          65.9067   92.5536   16.9778 C.ar    1  UNL1        0.1033
     14 N          67.3330   92.8578   16.6269 N.ar    1  UNL1       -0.2101
     15 C          70.0351   93.8968   15.6869 C.3     1  UNL1        0.2542
     16 O          69.2676   92.8819   14.8928 O.3     1  UNL1       -0.4561
     17 C          60.8352   88.7214    9.3207 C.ar    1  UNL1        0.0841
     18 C          60.5003   87.2597    9.3563 C.ar    1  UNL1        0.0192
     19 C          59.5822   86.6753    8.3239 C.ar    1  UNL1        0.0029
     20 C          58.9990   87.5526    7.2561 C.ar    1  UNL1        0.0184
     21 C          59.3339   89.0143    7.2205 C.ar    1  UNL1        0.1072
     22 C          60.2520   89.5987    8.2529 C.ar    1  UNL1        0.0375
     23 S          58.7508   89.8916    6.1528 S.O2    1  UNL1        0.0105
     24 C          58.1676   90.7689    5.0850 C.3     1  UNL1        0.1816
     25 O          60.1327   90.2713    5.7099 O.2     1  UNL1       -0.1686
     26 O          57.3688   89.5119    6.5956 O.2     1  UNL1       -0.1686
     27 C          63.5861   89.0728   14.9555 C.3     1  UNL1        0.0221
     28 C          64.5574   88.0823   14.3849 C.3     1  UNL1        0.0020
     29 C          62.6148   90.0633   15.5260 C.3     1  UNL1        0.0020
     30 C          63.4717   88.2436   16.2002 C.3     1  UNL1        0.0020
@<TRIPOS>BOND
     1    15    16    1
     2    16     9    1
     3     9    10   ar
     4    10    11   ar
     5    11     1    1
     6     1     2    1
     7     2     3    1
     8     3     4   ar
     9     4     5   ar
    10     5    17    1
    11    17    18   ar
    12    18    19   ar
    13    19    20   ar
    14    20    21   ar
    15    21    23    1
    16    23    24    1
    17    23    25    2
    18    23    26    2
    19    21    22   ar
    20     5     6   ar
    21     6     7   ar
    22     7     8    1
    23     8    27    1
    24    27    28    1
    25    27    29    1
    26    27    30    1
    27    11    12   ar
    28    12    13   ar
    29    13    14   ar
    30    14     9   ar
    31     8     1    1
    32     7     3   ar
    33    22    17   ar
@<TRIPOS>MOLECULE
*****
 30 33 0 0 0
SMALL
GASTEIGER

@<TRIPOS>ATOM
      1 N          63.1678   83.7835   13.6009 N.pl3   1  UNL1       -0.2996
      2 C          63.5149   84.2581   14.9809 C.3     1  UNL1        0.1208
      3 C          63.7752   85.7337   14.9119 C.ar    1  UNL1        0.0336
      4 C          64.1505   86.9390   15.7222 C.ar    1  UNL1        0.0990
      5 N          64.1963   88.1213   14.8003 N.ar    1  UNL1       -0.2287
      6 N          63.8492   87.6468   13.4202 N.ar    1  UNL1       -0.1681
      7 C          63.5890   86.1712   13.4893 C.ar    1  UNL1        0.0960
      8 C          63.2136   84.9660   12.6790 C.3     1  UNL1        0.1147
      9 C          62.8161   80.4735   11.4401 C.ar    1  UNL1        0.2262
     10 C          63.1502   81.8828   11.8298 C.ar    1  UNL1        0.0722
     11 C          62.8337   82.3742   13.2113 C.ar    1  UNL1        0.0546
     12 C          62.1830   81.4560   14.2030 C.ar    1  UNL1        0.0354
     13 C          61.8488   80.0466   13.8134 C.ar    1  UNL1        0.1033
     14 N          62.1653   79.5553   12.4319 N.ar    1  UNL1       -0.2101
     15 C          62.8575   78.5546    9.6890 C.3     1  UNL1        0.2542
     16 O          63.1326   79.9821   10.0586 O.3     1  UNL1       -0.4561
     17 C          64.5305   89.5307   15.1899 C.ar    1  UNL1        0.0841
     18 C          63.5483   90.3432   15.9806 C.ar    1  UNL1        0.0192
     19 C          63.8825   91.7527   16.3702 C.ar    1  UNL1        0.0029
     20 C          65.1989   92.3496   15.9692 C.ar    1  UNL1        0.0184
     21 C          66.1810   91.5372   15.1785 C.ar    1  UNL1        0.1072
     22 C          65.8468   90.1277   14.7889 C.ar    1  UNL1        0.0375
     23 S          67.4974   92.1341   14.7774 S.O2    1  UNL1        0.0105
     24 C          68.8138   92.7310   14.3764 C.3     1  UNL1        0.1816
     25 O          67.2737   91.6790   13.3657 O.2     1  UNL1       -0.1686
     26 O          67.7211   92.5891   16.1892 O.2     1  UNL1       -0.1686
     27 C          62.9333   84.9465   11.2056 C.3     1  UNL1        0.0221
     28 C          61.6335   85.6564   11.4435 C.3     1  UNL1        0.0020
     29 C          64.2330   84.2366   10.9676 C.3     1  UNL1        0.0020
     30 C          62.6529   84.9270    9.7321 C.3     1  UNL1        0.0020
@<TRIPOS>BOND
     1    15    16    1
     2    16     9    1
     3     9    10   ar
     4    10    11   ar
     5    11     1    1
     6     1     2    1
     7     2     3    1
     8     3     4   ar
     9     4     5   ar
    10     5    17    1
    11    17    18   ar
    12    18    19   ar
    13    19    20   ar
    14    20    21   ar
    15    21    23    1
    16    23    24    1
    17    23    25    2
    18    23    26    2
    19    21    22   ar
    20     5     6   ar
    21     6     7   ar
    22     7     8    1
    23     8    27    1
    24    27    28    1
    25    27    29    1
    26    27    30    1
    27    11    12   ar
    28    12    13   ar
    29    13    14   ar
    30    14     9   ar
    31     8     1    1
    32     7     3   ar
    33    22    17   ar
@<TRIPOS>MOLECULE
*****
 30 33 0 0 0
SMALL
GASTEIGER

@<TRIPOS>ATOM
      1 N          64.4461   89.1604   13.7557 N.pl3   1  UNL1       -0.2996
      2 C          65.0071   88.0319   14.5692 C.3     1  UNL1        0.1208
      3 C          64.3021   86.7719   14.1623 C.ar    1  UNL1        0.0336
      4 C          64.2132   85.2958   14.4136 C.ar    1  UNL1        0.0990
      5 N          63.1615   84.7333   13.5039 N.ar    1  UNL1       -0.2287
      6 N          62.6004   85.8618   12.6904 N.ar    1  UNL1       -0.1681
      7 C          63.3054   87.1217   13.0973 C.ar    1  UNL1        0.0960
      8 C          63.3943   88.5979   12.8460 C.3     1  UNL1        0.1147
      9 C          65.5051   92.8257   12.6631 C.ar    1  UNL1        0.2262
     10 C          65.0877   91.3873   12.5813 C.ar    1  UNL1        0.0722
     11 C          64.8634   90.5988   13.8375 C.ar    1  UNL1        0.0546
     12 C          65.0565   91.2488   15.1755 C.ar    1  UNL1        0.0354
     13 C          65.4739   92.6872   15.2573 C.ar    1  UNL1        0.1033
     14 N          65.6982   93.4757   14.0011 N.ar    1  UNL1       -0.2101
     15 C          66.1776   95.0433   11.4885 C.3     1  UNL1        0.2542
     16 O          65.7294   93.6142   11.4069 O.3     1  UNL1       -0.4561
     17 C          62.7441   83.2949   13.4221 C.ar    1  UNL1        0.0841
     18 C          62.0277   82.6551   14.5742 C.ar    1  UNL1        0.0192
     19 C          61.6103   81.2167   14.4923 C.ar    1  UNL1        0.0029
     20 C          61.9093   80.4180   13.2583 C.ar    1  UNL1        0.0184
     21 C          62.6257   81.0578   12.1062 C.ar    1  UNL1        0.1072
     22 C          63.0431   82.4962   12.1881 C.ar    1  UNL1        0.0375
     23 S          62.9248   80.2592   10.8722 S.O2    1  UNL1        0.0105
     24 C          63.2238   79.4607    9.6382 C.3     1  UNL1        0.1816
     25 O          62.4855   79.0088   11.5748 O.2     1  UNL1       -0.1686
     26 O          63.3641   81.5096   10.1696 O.2     1  UNL1       -0.1686
     27 C          62.5753   89.3750   11.8585 C.3     1  UNL1        0.0221
     28 C          61.9612   90.1559   12.9823 C.3     1  UNL1        0.0020
     29 C          63.1894   88.5941   10.7346 C.3     1  UNL1        0.0020
     30 C          61.7563   90.1522   10.8709 C.3     1  UNL1        0.0020
@<TRIPOS>BOND
     1    15    16    1
     2    16     9    1
     3     9    10   ar
     4    10    11   ar
     5    11     1    1
     6     1     2    1
     7     2     3    1
     8     3     4   ar
     9     4     5   ar
    10     5    17    1
    11    17    18   ar
    12    18    19   ar
    13    19    20   ar
    14    20    21   ar
    15    21    23    1
    16    23    24    1
    17    23    25    2
    18    23    26    2
    19    21    22   ar
    20     5     6   ar
    21     6     7   ar
    22     7     8    1
    23     8    27    1
    24    27    28    1
    25    27    29    1
    26    27    30    1
    27    11    12   ar
    28    12    13   ar
    29    13    14   ar
    30    14     9   ar
    31     8     1    1
    32     7     3   ar
    33    22    17   ar
@<TRIPOS>MOLECULE
*****
 30 33 0 0 0
SMALL
GASTEIGER

@<TRIPOS>ATOM
      1 N          63.3812   84.1063   13.1244 N.pl3   1  UNL1       -0.2996
      2 C          64.0541   84.4814   14.4115 C.3     1  UNL1        0.1208
      3 C          64.1884   85.9750   14.4462 C.ar    1  UNL1        0.0336
      4 C          64.6873   87.1299   15.2631 C.ar    1  UNL1        0.0990
      5 N          64.4058   88.3916   14.5024 N.ar    1  UNL1       -0.2287
      6 N          63.7329   88.0165   13.2153 N.ar    1  UNL1       -0.1681
      7 C          63.5985   86.5230   13.1806 C.ar    1  UNL1        0.0960
      8 C          63.0996   85.3681   12.3637 C.3     1  UNL1        0.1147
      9 C          61.7967   80.4685   13.0526 C.ar    1  UNL1        0.2262
     10 C          62.1296   81.8608   13.5003 C.ar    1  UNL1        0.0722
     11 C          63.0483   82.7140   12.6768 C.ar    1  UNL1        0.0546
     12 C          63.6340   82.1747   11.4055 C.ar    1  UNL1        0.0354
     13 C          63.3012   80.7823   10.9577 C.ar    1  UNL1        0.1033
     14 N          62.3825   79.9292   11.7813 N.ar    1  UNL1       -0.2101
     15 C          59.5253   80.1317   14.2681 C.3     1  UNL1        0.2542
     16 O          60.8780   79.6153   13.8761 O.3     1  UNL1       -0.4561
     17 C          64.7386   89.7840   14.9501 C.ar    1  UNL1        0.0841
     18 C          63.7053   90.6127   15.6540 C.ar    1  UNL1        0.0192
     19 C          64.0383   92.0051   16.1016 C.ar    1  UNL1        0.0029
     20 C          65.4045   92.5688   15.8454 C.ar    1  UNL1        0.0184
     21 C          66.4379   91.7401   15.1416 C.ar    1  UNL1        0.1072
     22 C          66.1049   90.3477   14.6939 C.ar    1  UNL1        0.0375
     23 S          67.8041   92.3037   14.8854 S.O2    1  UNL1        0.0105
     24 C          69.1703   92.8673   14.6291 C.3     1  UNL1        0.1816
     25 O          68.0728   92.3235   16.3610 O.2     1  UNL1       -0.1686
     26 O          67.5355   92.2839   13.4097 O.2     1  UNL1       -0.1686
     27 C          62.4358   85.4590   11.0217 C.3     1  UNL1        0.0221
     28 C          63.5779   84.7066   10.4057 C.3     1  UNL1        0.0020
     29 C          61.2936   86.2114   11.6376 C.3     1  UNL1        0.0020
     30 C          61.7719   85.5499    9.6796 C.3     1  UNL1        0.0020
@<TRIPOS>BOND
     1    15    16    1
     2    16     9    1
     3     9    10   ar
     4    10    11   ar
     5    11     1    1
     6     1     2    1
     7     2     3    1
     8     3     4   ar
     9     4     5   ar
    10     5    17    1
    11    17    18   ar
    12    18    19   ar
    13    19    20   ar
    14    20    21   ar
    15    21    23    1
    16    23    24    1
    17    23    25    2
    18    23    26    2
    19    21    22   ar
    20     5     6   ar
    21     6     7   ar
    22     7     8    1
    23     8    27    1
    24    27    28    1
    25    27    29    1
    26    27    30    1
    27    11    12   ar
    28    12    13   ar
    29    13    14   ar
    30    14     9   ar
    31     8     1    1
    32     7     3   ar
    33    22    17   ar
@<TRIPOS>MOLECULE
*****
 30 33 0 0 0
SMALL
GASTEIGER

@<TRIPOS>ATOM
      1 N          61.6461   87.8389   10.0466 N.pl3   1  UNL1       -0.2996
      2 C          61.7783   89.3302   10.1396 C.3     1  UNL1        0.1208
      3 C          62.6061   89.6477   11.3496 C.ar    1  UNL1        0.0336
      4 C          63.1994   90.7655   12.1548 C.ar    1  UNL1        0.0990
      5 N          63.9454   90.1613   13.3073 N.ar    1  UNL1       -0.2287
      6 N          63.8132   88.6700   13.2144 N.ar    1  UNL1       -0.1681
      7 C          62.9855   88.3526   12.0044 C.ar    1  UNL1        0.0960
      8 C          62.3922   87.2347   11.1992 C.3     1  UNL1        0.1147
      9 C          60.8349   85.2336    7.1650 C.ar    1  UNL1        0.2262
     10 C          61.5820   85.9882    8.2244 C.ar    1  UNL1        0.0722
     11 C          60.8990   87.0844    8.9872 C.ar    1  UNL1        0.0546
     12 C          59.4689   87.4260    8.6905 C.ar    1  UNL1        0.0354
     13 C          58.7217   86.6714    7.6311 C.ar    1  UNL1        0.1033
     14 N          59.4047   85.5753    6.8683 N.ar    1  UNL1       -0.2101
     15 C          62.4499   84.4753    5.2764 C.3     1  UNL1        0.2542
     16 O          61.5180   84.1374    6.4021 O.3     1  UNL1       -0.4561
     17 C          64.6926   90.9159   14.3668 C.ar    1  UNL1        0.0841
     18 C          64.0052   91.2911   15.6461 C.ar    1  UNL1        0.0192
     19 C          64.7524   92.0456   16.7056 C.ar    1  UNL1        0.0029
     20 C          66.1869   92.4250   16.4857 C.ar    1  UNL1        0.0184
     21 C          66.8743   92.0498   15.2063 C.ar    1  UNL1        0.1072
     22 C          66.1270   91.2952   14.1469 C.ar    1  UNL1        0.0375
     23 S          68.3087   92.4290   14.9864 S.O2    1  UNL1        0.0105
     24 C          69.7432   92.8083   14.7663 C.3     1  UNL1        0.1816
     25 O          68.5387   92.4193   16.4686 O.2     1  UNL1       -0.1686
     26 O          68.0788   92.4387   13.5040 O.2     1  UNL1       -0.1686
     27 C          62.5221   85.7699   11.4946 C.3     1  UNL1        0.0221
     28 C          61.7089   85.9493   12.7422 C.3     1  UNL1        0.0020
     29 C          63.3353   85.5904   10.2471 C.3     1  UNL1        0.0020
     30 C          62.6520   84.3050   11.7901 C.3     1  UNL1        0.0020
@<TRIPOS>BOND
     1    15    16    1
     2    16     9    1
     3     9    10   ar
     4    10    11   ar
     5    11     1    1
     6     1     2    1
     7     2     3    1
     8     3     4   ar
     9     4     5   ar
    10     5    17    1
    11    17    18   ar
    12    18    19   ar
    13    19    20   ar
    14    20    21   ar
    15    21    23    1
    16    23    24    1
    17    23    25    2
    18    23    26    2
    19    21    22   ar
    20     5     6   ar
    21     6     7   ar
    22     7     8    1
    23     8    27    1
    24    27    28    1
    25    27    29    1
    26    27    30    1
    27    11    12   ar
    28    12    13   ar
    29    13    14   ar
    30    14     9   ar
    31     8     1    1
    32     7     3   ar
    33    22    17   ar
