@<TRIPOS>MOLECULE
*****
 38 43 0 0 0
SMALL
GASTEIGER

@<TRIPOS>ATOM
      1 C          59.4058   88.8424    7.3535 C.2     1  UNL1        0.1040
      2 N          58.6330   87.5578    7.4037 N.2     1  UNL1       -0.1483
      3 N          59.0423   86.8189    8.6433 N.2     1  UNL1       -0.1520
      4 C          60.0680   87.6468    9.3591 C.2     1  UNL1        0.0864
      5 C          60.8264   87.4235   10.6338 C.3     1  UNL1        0.0738
      6 C          61.8095   88.4508   11.1113 C.2     1  UNL1       -0.0152
      7 C          62.0341   89.7015   10.3142 C.2     1  UNL1        0.0496
      8 C          61.2757   89.9248    9.0395 C.2     1  UNL1        0.0070
      9 C          60.2926   88.8975    8.5620 C.2     1  UNL1        0.0351
     10 C          59.1148   91.9805    4.1412 C.ar    1  UNL1        0.1384
     11 C          60.4475   91.3889    4.4932 C.ar    1  UNL1        0.0369
     12 C          60.5445   90.3429    5.5640 C.ar    1  UNL1        0.0047
     13 C          59.3087   89.8884    6.2827 C.ar    1  UNL1        0.0196
     14 C          57.9761   90.4800    5.9307 C.ar    1  UNL1        0.0047
     15 C          57.8791   91.5260    4.8600 C.ar    1  UNL1        0.0369
     16 O          59.0177   93.0265    3.0705 O.3     1  UNL1       -0.4791
     17 O          64.5553   94.6325   -0.6719 O.2     1  UNL1       -0.2649
     18 C          63.4504   93.6501   -0.9247 C.2     1  UNL1        0.3029
     19 N          62.3422   93.4942    0.0741 N.am    1  UNL1       -0.2721
     20 C          62.3389   94.3207    1.3258 C.3     1  UNL1        0.0976
     21 C          61.2308   94.1648    2.3246 C.3     1  UNL1        0.0651
     22 C          60.1259   93.1824    2.0717 C.3     1  UNL1        0.1693
     23 C          60.1291   92.3558    0.8200 C.3     1  UNL1        0.0651
     24 C          61.2373   92.5117   -0.1789 C.3     1  UNL1        0.0976
     25 C          63.0173   90.7288   10.7918 C.2     1  UNL1        0.2457
     26 O          63.2020   92.0041   10.0240 O.2     1  UNL1       -0.2701
     27 N          63.8157   90.4809   12.0372 N.am    1  UNL1       -0.2987
     28 H          63.6945   89.6439   12.5411 H       1  UNL1        0.1500
     29 C          64.7988   91.5082   12.5148 C.3     1  UNL1        0.0943
     30 C          64.9819   91.7448   13.9847 C.ar    1  UNL1       -0.0045
     31 C          66.1826   92.4951   14.4798 C.ar    1  UNL1       -0.0027
     32 C          66.3657   92.7316   15.9497 C.ar    1  UNL1       -0.0003
     33 C          65.3479   92.2179   16.9245 C.ar    1  UNL1       -0.0000
     34 C          64.1471   91.4675   16.4294 C.ar    1  UNL1       -0.0003
     35 C          63.9641   91.2310   14.9595 C.ar    1  UNL1       -0.0027
     36 C          65.5989   92.2990   11.5226 C.3     1  UNL1        0.0222
     37 C          65.9447   93.6112   10.8834 C.3     1  UNL1        0.0020
     38 C          66.6388   92.3565   10.4431 C.3     1  UNL1        0.0020
@<TRIPOS>BOND
     1    17    18    2
     2    18    19   am
     3    19    20    1
     4    20    21    1
     5    21    22    1
     6    22    16    1
     7    16    10    1
     8    10    11   ar
     9    11    12   ar
    10    12    13   ar
    11    13     1    1
    12     1     2    2
    13     2     3    1
    14     3     4    2
    15     4     5    1
    16     5     6    1
    17     6     7    2
    18     7    25    1
    19    25    26    2
    20    25    27   am
    21    27    29    1
    22    29    30    1
    23    30    31   ar
    24    31    32   ar
    25    32    33   ar
    26    33    34   ar
    27    34    35   ar
    28    29    36    1
    29    36    37    1
    30    37    38    1
    31     7     8    1
    32     8     9    2
    33    13    14   ar
    34    14    15   ar
    35    22    23    1
    36    23    24    1
    37    24    19    1
    38    15    10   ar
    39     9     1    1
    40     9     4    1
    41    35    30   ar
    42    38    36    1
    43    27    28    1
@<TRIPOS>MOLECULE
*****
 38 43 0 0 0
SMALL
GASTEIGER

@<TRIPOS>ATOM
      1 C          61.4830   86.9762   10.6282 C.2     1  UNL1        0.1040
      2 N          61.3626   85.5012   10.8730 N.2     1  UNL1       -0.1483
      3 N          62.2228   85.1554   12.0522 N.2     1  UNL1       -0.1520
      4 C          62.8747   86.4167   12.5362 C.2     1  UNL1        0.0864
      5 C          63.8256   86.6858   13.6646 C.3     1  UNL1        0.0738
      6 C          64.3193   88.0803   13.9129 C.2     1  UNL1       -0.0152
      7 C          63.8620   89.2057   13.0328 C.2     1  UNL1        0.0496
      8 C          62.9111   88.9365   11.9044 C.2     1  UNL1        0.0070
      9 C          62.4175   87.5420   11.6561 C.2     1  UNL1        0.0351
     10 C          59.4051   89.2965    7.3803 C.ar    1  UNL1        0.1384
     11 C          59.3944   87.7968    7.3548 C.ar    1  UNL1        0.0369
     12 C          60.0870   87.0233    8.4374 C.ar    1  UNL1        0.0047
     13 C          60.7903   87.7497    9.5456 C.ar    1  UNL1        0.0196
     14 C          60.8010   89.2494    9.5710 C.ar    1  UNL1        0.0047
     15 C          60.1084   90.0228    8.4884 C.ar    1  UNL1        0.0369
     16 O          58.7125   90.0700    6.2976 O.3     1  UNL1       -0.4791
     17 O          63.3812   92.8226    2.0696 O.2     1  UNL1       -0.2649
     18 C          61.9337   93.1529    2.2828 C.2     1  UNL1        0.3029
     19 N          61.1284   92.3822    3.2865 N.am    1  UNL1       -0.2721
     20 C          61.7706   91.2811    4.0771 C.3     1  UNL1        0.0976
     21 C          60.9653   90.5103    5.0808 C.3     1  UNL1        0.0651
     22 C          59.5178   90.8407    5.2939 C.3     1  UNL1        0.1693
     23 C          58.8754   91.9419    4.5034 C.3     1  UNL1        0.0651
     24 C          59.6807   92.7126    3.4997 C.3     1  UNL1        0.0976
     25 C          64.3557   90.6002   13.2811 C.2     1  UNL1        0.2457
     26 O          63.4273   91.6354   13.8436 O.2     1  UNL1       -0.2701
     27 N          65.7777   90.9595   12.9670 N.am    1  UNL1       -0.2987
     28 H          66.3870   90.2800   12.5978 H       1  UNL1        0.1500
     29 C          66.2714   92.3540   13.2153 C.3     1  UNL1        0.0943
     30 C          66.4190   93.3123   12.0708 C.ar    1  UNL1       -0.0045
     31 C          66.1274   94.7700   12.2707 C.ar    1  UNL1       -0.0027
     32 C          66.2750   95.7283   11.1262 C.ar    1  UNL1       -0.0003
     33 C          66.7143   95.2288    9.7818 C.ar    1  UNL1       -0.0000
     34 C          67.0060   93.7711    9.5818 C.ar    1  UNL1       -0.0003
     35 C          66.8584   92.8128   10.7263 C.ar    1  UNL1       -0.0027
     36 C          66.6174   92.7902   14.6081 C.3     1  UNL1        0.0222
     37 C          66.3240   92.7929   16.0791 C.3     1  UNL1        0.0020
     38 C          67.5101   93.5430   15.5496 C.3     1  UNL1        0.0020
@<TRIPOS>BOND
     1    17    18    2
     2    18    19   am
     3    19    20    1
     4    20    21    1
     5    21    22    1
     6    22    16    1
     7    16    10    1
     8    10    11   ar
     9    11    12   ar
    10    12    13   ar
    11    13     1    1
    12     1     2    2
    13     2     3    1
    14     3     4    2
    15     4     5    1
    16     5     6    1
    17     6     7    2
    18     7    25    1
    19    25    26    2
    20    25    27   am
    21    27    29    1
    22    29    30    1
    23    30    31   ar
    24    31    32   ar
    25    32    33   ar
    26    33    34   ar
    27    34    35   ar
    28    29    36    1
    29    36    37    1
    30    37    38    1
    31     7     8    1
    32     8     9    2
    33    13    14   ar
    34    14    15   ar
    35    22    23    1
    36    23    24    1
    37    24    19    1
    38    15    10   ar
    39     9     1    1
    40     9     4    1
    41    35    30   ar
    42    38    36    1
    43    27    28    1
@<TRIPOS>MOLECULE
*****
 38 43 0 0 0
SMALL
GASTEIGER

@<TRIPOS>ATOM
      1 C          59.5989   88.4459    6.9562 C.2     1  UNL1        0.1040
      2 N          59.0552   87.1048    6.5613 N.2     1  UNL1       -0.1483
      3 N          59.2889   86.1565    7.6997 N.2     1  UNL1       -0.1520
      4 C          59.9770   86.9114    8.7982 C.2     1  UNL1        0.0864
      5 C          60.4538   86.4933   10.1575 C.3     1  UNL1        0.0738
      6 C          61.1222   87.4900   11.0572 C.2     1  UNL1       -0.0152
      7 C          61.3138   88.9050   10.5977 C.2     1  UNL1        0.0496
      8 C          60.8369   89.3232    9.2384 C.2     1  UNL1        0.0070
      9 C          60.1686   88.3264    8.3386 C.2     1  UNL1        0.0351
     10 C          59.5325   92.1734    4.4359 C.ar    1  UNL1        0.1384
     11 C          58.2611   91.6518    5.0370 C.ar    1  UNL1        0.0369
     12 C          58.2832   90.4093    5.8771 C.ar    1  UNL1        0.0047
     13 C          59.5768   89.6884    6.1161 C.ar    1  UNL1        0.0196
     14 C          60.8481   90.2101    5.5150 C.ar    1  UNL1        0.0047
     15 C          60.8260   91.4526    4.6749 C.ar    1  UNL1        0.0369
     16 O          59.5104   93.4159    3.5959 O.3     1  UNL1       -0.4791
     17 O          63.4708   93.6201   -2.0187 O.2     1  UNL1       -0.2649
     18 C          61.9967   93.3900   -1.8647 C.2     1  UNL1        0.3029
     19 N          61.3751   93.3965   -0.4995 N.am    1  UNL1       -0.2721
     20 C          62.2277   93.6331    0.7117 C.3     1  UNL1        0.0976
     21 C          61.6062   93.6396    2.0768 C.3     1  UNL1        0.0651
     22 C          60.1320   93.4094    2.2307 C.3     1  UNL1        0.1693
     23 C          59.2792   93.1728    1.0196 C.3     1  UNL1        0.0651
     24 C          59.9008   93.1663   -0.3456 C.3     1  UNL1        0.0976
     25 C          61.9822   89.9018   11.4975 C.2     1  UNL1        0.2457
     26 O          61.3701   91.2558   11.7025 O.2     1  UNL1       -0.2701
     27 N          63.2626   89.5446   12.1924 N.am    1  UNL1       -0.2987
     28 H          63.6643   88.6559   12.0578 H       1  UNL1        0.1500
     29 C          63.9311   90.5414   13.0922 C.3     1  UNL1        0.0943
     30 C          64.7387   91.6599   12.5034 C.ar    1  UNL1       -0.0045
     31 C          64.6452   91.9613   11.0371 C.ar    1  UNL1       -0.0027
     32 C          65.4528   93.0799   10.4483 C.ar    1  UNL1       -0.0003
     33 C          66.3540   93.8969   11.3259 C.ar    1  UNL1       -0.0000
     34 C          66.4475   93.5955   12.7924 C.ar    1  UNL1       -0.0003
     35 C          65.6399   92.4770   13.3812 C.ar    1  UNL1       -0.0027
     36 C          63.7919   90.4196   14.5807 C.3     1  UNL1        0.0222
     37 C          63.4681   89.5964   15.7921 C.3     1  UNL1        0.0020
     38 C          63.8745   91.0319   15.9476 C.3     1  UNL1        0.0020
@<TRIPOS>BOND
     1    17    18    2
     2    18    19   am
     3    19    20    1
     4    20    21    1
     5    21    22    1
     6    22    16    1
     7    16    10    1
     8    10    11   ar
     9    11    12   ar
    10    12    13   ar
    11    13     1    1
    12     1     2    2
    13     2     3    1
    14     3     4    2
    15     4     5    1
    16     5     6    1
    17     6     7    2
    18     7    25    1
    19    25    26    2
    20    25    27   am
    21    27    29    1
    22    29    30    1
    23    30    31   ar
    24    31    32   ar
    25    32    33   ar
    26    33    34   ar
    27    34    35   ar
    28    29    36    1
    29    36    37    1
    30    37    38    1
    31     7     8    1
    32     8     9    2
    33    13    14   ar
    34    14    15   ar
    35    22    23    1
    36    23    24    1
    37    24    19    1
    38    15    10   ar
    39     9     1    1
    40     9     4    1
    41    35    30   ar
    42    38    36    1
    43    27    28    1
@<TRIPOS>MOLECULE
*****
 38 43 0 0 0
SMALL
GASTEIGER

@<TRIPOS>ATOM
      1 C          63.6913   84.4147   15.0722 C.2     1  UNL1        0.1040
      2 N          63.9116   83.2756   16.0230 N.2     1  UNL1       -0.1483
      3 N          63.8464   81.9984   15.2391 N.2     1  UNL1       -0.1520
      4 C          63.5859   82.3482   13.8038 C.2     1  UNL1        0.0864
      5 C          63.4236   81.4997   12.5776 C.3     1  UNL1        0.0738
      6 C          63.1654   82.1447   11.2482 C.2     1  UNL1       -0.0152
      7 C          63.0696   83.6381   11.1451 C.2     1  UNL1        0.0496
      8 C          63.2319   84.4865   12.3713 C.2     1  UNL1        0.0070
      9 C          63.4901   83.8415   13.7007 C.2     1  UNL1        0.0351
     10 C          63.6429   88.7845   16.1459 C.ar    1  UNL1        0.1384
     11 C          63.0135   87.7795   17.0645 C.ar    1  UNL1        0.0369
     12 C          63.0297   86.3229   16.7067 C.ar    1  UNL1        0.0047
     13 C          63.6752   85.8713   15.4301 C.ar    1  UNL1        0.0196
     14 C          64.3045   86.8763   14.5116 C.ar    1  UNL1        0.0047
     15 C          64.2884   88.3329   14.8695 C.ar    1  UNL1        0.0369
     16 O          63.6267   90.2411   16.5038 O.3     1  UNL1       -0.4791
     17 O          66.6848   94.1795   11.7723 O.2     1  UNL1       -0.2649
     18 C          66.8131   94.1612   13.2667 C.2     1  UNL1        0.3029
     19 N          66.0165   93.1812   14.0760 N.am    1  UNL1       -0.2721
     20 C          65.0915   92.2194   13.3909 C.3     1  UNL1        0.0976
     21 C          64.2949   91.2394   14.2002 C.3     1  UNL1        0.0651
     22 C          64.4233   91.2211   15.6945 C.3     1  UNL1        0.1693
     23 C          65.3483   92.1829   16.3797 C.3     1  UNL1        0.0651
     24 C          66.1449   93.1630   15.5704 C.3     1  UNL1        0.0976
     25 C          62.8114   84.2830    9.8156 C.2     1  UNL1        0.2457
     26 O          63.8216   84.1601    8.7136 O.2     1  UNL1       -0.2701
     27 N          61.5431   85.0509    9.5882 N.am    1  UNL1       -0.2987
     28 H          60.8801   85.1316   10.3115 H       1  UNL1        0.1500
     29 C          61.2849   85.6959    8.2587 C.3     1  UNL1        0.0943
     30 C          60.7001   87.0757    8.1955 C.ar    1  UNL1       -0.0045
     31 C          59.6966   87.4170    7.1341 C.ar    1  UNL1       -0.0027
     32 C          59.1117   88.7969    7.0709 C.ar    1  UNL1       -0.0003
     33 C          59.5303   89.8354    8.0690 C.ar    1  UNL1       -0.0000
     34 C          60.5338   89.4940    9.1304 C.ar    1  UNL1       -0.0003
     35 C          61.1187   88.1142    9.1937 C.ar    1  UNL1       -0.0027
     36 C          61.6116   84.9610    6.9925 C.3     1  UNL1        0.0222
     37 C          61.1880   84.0759    5.8581 C.3     1  UNL1        0.0020
     38 C          62.6010   84.5733    5.9339 C.3     1  UNL1        0.0020
@<TRIPOS>BOND
     1    17    18    2
     2    18    19   am
     3    19    20    1
     4    20    21    1
     5    21    22    1
     6    22    16    1
     7    16    10    1
     8    10    11   ar
     9    11    12   ar
    10    12    13   ar
    11    13     1    1
    12     1     2    2
    13     2     3    1
    14     3     4    2
    15     4     5    1
    16     5     6    1
    17     6     7    2
    18     7    25    1
    19    25    26    2
    20    25    27   am
    21    27    29    1
    22    29    30    1
    23    30    31   ar
    24    31    32   ar
    25    32    33   ar
    26    33    34   ar
    27    34    35   ar
    28    29    36    1
    29    36    37    1
    30    37    38    1
    31     7     8    1
    32     8     9    2
    33    13    14   ar
    34    14    15   ar
    35    22    23    1
    36    23    24    1
    37    24    19    1
    38    15    10   ar
    39     9     1    1
    40     9     4    1
    41    35    30   ar
    42    38    36    1
    43    27    28    1
@<TRIPOS>MOLECULE
*****
 38 43 0 0 0
SMALL
GASTEIGER

@<TRIPOS>ATOM
      1 C          62.3559   88.1329   11.1396 C.2     1  UNL1        0.1040
      2 N          62.4113   86.8065   11.8377 N.2     1  UNL1       -0.1483
      3 N          61.4999   85.8621   11.1114 N.2     1  UNL1       -0.1520
      4 C          60.8813   86.6049    9.9644 C.2     1  UNL1        0.0864
      5 C          59.9047   86.1847    8.9064 C.3     1  UNL1        0.0738
      6 C          59.4571   87.1679    7.8658 C.2     1  UNL1       -0.0152
      7 C          59.9861   88.5714    7.8832 C.2     1  UNL1        0.0496
      8 C          60.9628   88.9916    8.9412 C.2     1  UNL1        0.0070
      9 C          61.4104   88.0084    9.9818 C.2     1  UNL1        0.0351
     10 C          64.6278   91.8361   12.3127 C.ar    1  UNL1        0.1384
     11 C          64.4627   90.7147   13.2952 C.ar    1  UNL1        0.0369
     12 C          63.7055   89.4803   12.9042 C.ar    1  UNL1        0.0047
     13 C          63.1132   89.3673   11.5306 C.ar    1  UNL1        0.0196
     14 C          63.2783   90.4887   10.5482 C.ar    1  UNL1        0.0047
     15 C          64.0355   91.7231   10.9392 C.ar    1  UNL1        0.0369
     16 O          65.3850   93.0704   12.7037 O.3     1  UNL1       -0.4791
     17 O          67.8816   96.3014    7.1739 O.2     1  UNL1       -0.2649
     18 C          67.3675   96.8388    8.4766 C.2     1  UNL1        0.3029
     19 N          66.8719   95.8967    9.5334 N.am    1  UNL1       -0.2721
     20 C          66.8903   94.4171    9.2875 C.3     1  UNL1        0.0976
     21 C          66.3947   93.4750   10.3443 C.3     1  UNL1        0.0651
     22 C          65.8807   94.0125   11.6469 C.3     1  UNL1        0.1693
     23 C          65.8622   95.4922   11.8928 C.3     1  UNL1        0.0651
     24 C          66.3578   96.4342   10.8361 C.3     1  UNL1        0.0976
     25 C          59.5385   89.5546    6.8426 C.2     1  UNL1        0.2457
     26 O          58.0808   89.8743    6.6905 O.2     1  UNL1       -0.2701
     27 N          60.5485   90.2182    5.9540 N.am    1  UNL1       -0.2987
     28 H          61.5052   90.0084    6.0538 H       1  UNL1        0.1500
     29 C          60.1008   91.2015    4.9134 C.3     1  UNL1        0.0943
     30 C          61.0775   91.7149    3.8973 C.ar    1  UNL1       -0.0045
     31 C          60.6821   92.8274    2.9721 C.ar    1  UNL1       -0.0027
     32 C          61.6588   93.3408    1.9560 C.ar    1  UNL1       -0.0003
     33 C          63.0309   92.7417    1.8651 C.ar    1  UNL1       -0.0000
     34 C          63.4264   91.6292    2.7903 C.ar    1  UNL1       -0.0003
     35 C          62.4497   91.1158    3.8064 C.ar    1  UNL1       -0.0027
     36 C          58.6765   91.6713    4.8888 C.3     1  UNL1        0.0222
     37 C          57.2108   91.3698    4.7843 C.3     1  UNL1        0.0020
     38 C          57.6752   92.7864    4.9509 C.3     1  UNL1        0.0020
@<TRIPOS>BOND
     1    17    18    2
     2    18    19   am
     3    19    20    1
     4    20    21    1
     5    21    22    1
     6    22    16    1
     7    16    10    1
     8    10    11   ar
     9    11    12   ar
    10    12    13   ar
    11    13     1    1
    12     1     2    2
    13     2     3    1
    14     3     4    2
    15     4     5    1
    16     5     6    1
    17     6     7    2
    18     7    25    1
    19    25    26    2
    20    25    27   am
    21    27    29    1
    22    29    30    1
    23    30    31   ar
    24    31    32   ar
    25    32    33   ar
    26    33    34   ar
    27    34    35   ar
    28    29    36    1
    29    36    37    1
    30    37    38    1
    31     7     8    1
    32     8     9    2
    33    13    14   ar
    34    14    15   ar
    35    22    23    1
    36    23    24    1
    37    24    19    1
    38    15    10   ar
    39     9     1    1
    40     9     4    1
    41    35    30   ar
    42    38    36    1
    43    27    28    1
@<TRIPOS>MOLECULE
*****
 38 43 0 0 0
SMALL
GASTEIGER

@<TRIPOS>ATOM
      1 C          62.3490   87.0591   11.2700 C.2     1  UNL1        0.1040
      2 N          62.6209   85.6037   11.5104 N.2     1  UNL1       -0.1483
      3 N          62.0196   84.8265   10.3770 N.2     1  UNL1       -0.1520
      4 C          61.3762   85.8016    9.4361 C.2     1  UNL1        0.0864
      5 C          60.6312   85.6113    8.1482 C.3     1  UNL1        0.0738
      6 C          60.0899   86.8009    7.4122 C.2     1  UNL1       -0.0152
      7 C          60.2934   88.1807    7.9641 C.2     1  UNL1        0.0496
      8 C          61.0384   88.3710    9.2520 C.2     1  UNL1        0.0070
      9 C          61.5797   87.1815    9.9880 C.2     1  UNL1        0.0351
     10 C          63.6182   90.4614   13.9278 C.ar    1  UNL1        0.1384
     11 C          62.7801   90.7308   12.7134 C.ar    1  UNL1        0.0369
     12 C          62.3570   89.5967   11.8274 C.ar    1  UNL1        0.0047
     13 C          62.7721   88.1932   12.1559 C.ar    1  UNL1        0.0196
     14 C          63.6102   87.9238   13.3703 C.ar    1  UNL1        0.0047
     15 C          64.0333   89.0579   14.2563 C.ar    1  UNL1        0.0369
     16 O          64.0413   91.5954   14.8138 O.3     1  UNL1       -0.4791
     17 O          70.3362   93.9105   16.3186 O.2     1  UNL1       -0.2649
     18 C          69.8240   93.1657   15.1216 C.2     1  UNL1        0.3029
     19 N          68.3783   92.7731   15.0446 N.am    1  UNL1       -0.2721
     20 C          67.4448   93.1253   16.1647 C.3     1  UNL1        0.0976
     21 C          65.9992   92.7328   16.0878 C.3     1  UNL1        0.0651
     22 C          65.4870   91.9880   14.8907 C.3     1  UNL1        0.1693
     23 C          66.4204   91.6357   13.7706 C.3     1  UNL1        0.0651
     24 C          67.8661   92.0283   13.8475 C.3     1  UNL1        0.0976
     25 C          59.7520   89.3703    7.2280 C.2     1  UNL1        0.2457
     26 O          59.0719   90.4737    7.9830 O.2     1  UNL1       -0.2701
     27 N          59.8906   89.4565    5.7369 N.am    1  UNL1       -0.2987
     28 H          60.3370   88.7323    5.2414 H       1  UNL1        0.1500
     29 C          59.3492   90.6461    5.0008 C.3     1  UNL1        0.0943
     30 C          60.2605   91.4800    4.1498 C.ar    1  UNL1       -0.0045
     31 C          59.7141   92.6545    3.3935 C.ar    1  UNL1       -0.0027
     32 C          60.6254   93.4883    2.5425 C.ar    1  UNL1       -0.0003
     33 C          62.0831   93.1477    2.4478 C.ar    1  UNL1       -0.0000
     34 C          62.6296   91.9732    3.2041 C.ar    1  UNL1       -0.0003
     35 C          61.7183   91.1393    4.0551 C.ar    1  UNL1       -0.0027
     36 C          57.8966   91.0018    5.1157 C.3     1  UNL1        0.0222
     37 C          56.4885   90.6175    5.4617 C.3     1  UNL1        0.0020
     38 C          56.7885   92.0020    4.9687 C.3     1  UNL1        0.0020
@<TRIPOS>BOND
     1    17    18    2
     2    18    19   am
     3    19    20    1
     4    20    21    1
     5    21    22    1
     6    22    16    1
     7    16    10    1
     8    10    11   ar
     9    11    12   ar
    10    12    13   ar
    11    13     1    1
    12     1     2    2
    13     2     3    1
    14     3     4    2
    15     4     5    1
    16     5     6    1
    17     6     7    2
    18     7    25    1
    19    25    26    2
    20    25    27   am
    21    27    29    1
    22    29    30    1
    23    30    31   ar
    24    31    32   ar
    25    32    33   ar
    26    33    34   ar
    27    34    35   ar
    28    29    36    1
    29    36    37    1
    30    37    38    1
    31     7     8    1
    32     8     9    2
    33    13    14   ar
    34    14    15   ar
    35    22    23    1
    36    23    24    1
    37    24    19    1
    38    15    10   ar
    39     9     1    1
    40     9     4    1
    41    35    30   ar
    42    38    36    1
    43    27    28    1
@<TRIPOS>MOLECULE
*****
 38 43 0 0 0
SMALL
GASTEIGER

@<TRIPOS>ATOM
      1 C          59.5042   89.3999    6.7740 C.2     1  UNL1        0.1040
      2 N          58.6089   88.2005    6.6751 N.2     1  UNL1       -0.1483
      3 N          58.8178   87.3637    7.9023 N.2     1  UNL1       -0.1520
      4 C          59.8422   88.0460    8.7598 C.2     1  UNL1        0.0864
      5 C          60.4435   87.6840   10.0854 C.3     1  UNL1        0.0738
      6 C          61.4689   88.5804   10.7136 C.2     1  UNL1       -0.0152
      7 C          61.8931   89.8389   10.0163 C.2     1  UNL1        0.0496
      8 C          61.2918   90.2009    8.6907 C.2     1  UNL1        0.0070
      9 C          60.2664   89.3045    8.0624 C.2     1  UNL1        0.0351
     10 C          59.8439   92.7046    3.7385 C.ar    1  UNL1        0.1384
     11 C          61.0530   91.8964    4.1058 C.ar    1  UNL1        0.0369
     12 C          60.9398   90.7949    5.1177 C.ar    1  UNL1        0.0047
     13 C          59.6174   90.5015    5.7622 C.ar    1  UNL1        0.0196
     14 C          58.4083   91.3096    5.3948 C.ar    1  UNL1        0.0047
     15 C          58.5215   92.4112    4.3830 C.ar    1  UNL1        0.0369
     16 O          59.9571   93.8062    2.7267 O.3     1  UNL1       -0.4791
     17 O          57.9847   91.5425   -3.4568 O.2     1  UNL1       -0.2649
     18 C          58.0359   92.9301   -2.8895 C.2     1  UNL1        0.3029
     19 N          58.5162   93.1491   -1.4854 N.am    1  UNL1       -0.2721
     20 C          58.9453   91.9805   -0.6487 C.3     1  UNL1        0.0976
     21 C          59.4256   92.1995    0.7554 C.3     1  UNL1        0.0651
     22 C          59.4768   93.5872    1.3227 C.3     1  UNL1        0.1693
     23 C          59.0477   94.7559    0.4859 C.3     1  UNL1        0.0651
     24 C          58.5674   94.5369   -0.9181 C.3     1  UNL1        0.0976
     25 C          62.9187   90.7353   10.6446 C.2     1  UNL1        0.2457
     26 O          63.2810   92.0351    9.9893 O.2     1  UNL1       -0.2701
     27 N          63.5818   90.3320   11.9282 N.am    1  UNL1       -0.2987
     28 H          63.3439   89.4790   12.3583 H       1  UNL1        0.1500
     29 C          64.6073   91.2285   12.5565 C.3     1  UNL1        0.0943
     30 C          64.6239   91.4219   14.0439 C.ar    1  UNL1       -0.0045
     31 C          65.6323   92.3392   14.6697 C.ar    1  UNL1       -0.0027
     32 C          65.6489   92.5326   16.1571 C.ar    1  UNL1       -0.0003
     33 C          64.6572   91.8087   17.0187 C.ar    1  UNL1       -0.0000
     34 C          63.6487   90.8913   16.3929 C.ar    1  UNL1       -0.0003
     35 C          63.6321   90.6979   14.9055 C.ar    1  UNL1       -0.0027
     36 C          65.6161   91.9315   11.6975 C.3     1  UNL1        0.0222
     37 C          67.0440   92.1883   11.3162 C.3     1  UNL1        0.0020
     38 C          65.9358   92.8923   10.5909 C.3     1  UNL1        0.0020
@<TRIPOS>BOND
     1    17    18    2
     2    18    19   am
     3    19    20    1
     4    20    21    1
     5    21    22    1
     6    22    16    1
     7    16    10    1
     8    10    11   ar
     9    11    12   ar
    10    12    13   ar
    11    13     1    1
    12     1     2    2
    13     2     3    1
    14     3     4    2
    15     4     5    1
    16     5     6    1
    17     6     7    2
    18     7    25    1
    19    25    26    2
    20    25    27   am
    21    27    29    1
    22    29    30    1
    23    30    31   ar
    24    31    32   ar
    25    32    33   ar
    26    33    34   ar
    27    34    35   ar
    28    29    36    1
    29    36    37    1
    30    37    38    1
    31     7     8    1
    32     8     9    2
    33    13    14   ar
    34    14    15   ar
    35    22    23    1
    36    23    24    1
    37    24    19    1
    38    15    10   ar
    39     9     1    1
    40     9     4    1
    41    35    30   ar
    42    38    36    1
    43    27    28    1
