@<TRIPOS>MOLECULE
*****
 35 38 0 0 0
SMALL
GASTEIGER

@<TRIPOS>ATOM
      1 N          58.9345   90.4220    6.1591 N.am    1  UNL1       -0.2681
      2 C          59.9138   91.0323    5.2006 C.2     1  UNL1        0.3082
      3 O          61.3444   90.5811    5.2013 O.2     1  UNL1       -0.2522
      4 N          59.4627   92.0937    4.2416 N.am    1  UNL1       -0.2681
      5 H          57.9956   90.7182    6.1586 H       1  UNL1        0.1564
      6 H          58.5238   92.3898    4.2411 H       1  UNL1        0.1564
      7 C          60.4982   88.6858    9.3669 C.ar    1  UNL1        0.0546
      8 C          60.2881   87.2378    9.0363 C.ar    1  UNL1        0.0046
      9 C          59.6266   86.8513    7.7466 C.ar    1  UNL1        0.0014
     10 C          59.1755   87.9127    6.7876 C.ar    1  UNL1        0.0147
     11 C          59.3857   89.3606    7.1181 C.ar    1  UNL1        0.0517
     12 C          60.0470   89.7472    8.4077 C.ar    1  UNL1        0.0192
     13 N          62.6185   89.4206   10.6762 N.am    1  UNL1       -0.3025
     14 C          61.1596   89.0723   10.6565 C.2     1  UNL1        0.2458
     15 O          60.3622   89.1106   11.9263 O.2     1  UNL1       -0.2701
     16 H          63.1420   89.3955    9.8428 H       1  UNL1        0.1497
     17 C          63.6014   88.7575   12.9879 C.3     1  UNL1        0.0213
     18 C          63.2799   89.8072   11.9658 C.3     1  UNL1        0.0720
     19 C          63.6198   91.2435   12.2334 C.3     1  UNL1        0.0213
     20 C          60.4420   92.7039    3.2832 C.ar    1  UNL1        0.0516
     21 C          61.7789   92.0594    3.0652 C.ar    1  UNL1        0.0148
     22 C          62.7583   92.6696    2.1068 C.ar    1  UNL1        0.0028
     23 C          62.4008   93.9242    1.3665 C.ar    1  UNL1        0.0179
     24 C          61.0640   94.5686    1.5844 C.ar    1  UNL1        0.0028
     25 C          60.0845   93.9585    2.5429 C.ar    1  UNL1        0.0148
     26 C          63.3802   94.5344    0.4081 C.ar    1  UNL1        0.0859
     27 N          64.4281   95.4834    0.9093 N.ar    1  UNL1       -0.2239
     28 C          65.4075   96.0936   -0.0491 C.ar    1  UNL1        0.2002
     29 N          65.3390   95.7546   -1.5087 N.ar    1  UNL1       -0.2065
     30 C          64.2911   94.8056   -2.0099 C.ar    1  UNL1        0.1471
     31 C          63.3117   94.1955   -1.0515 C.ar    1  UNL1        0.0534
     32 C          62.3960   93.2997   -1.8320 C.ar    1  UNL1        0.0232
     33 C          62.8095   93.3562   -3.2728 C.ar    1  UNL1        0.0772
     34 N          63.9807   94.2869   -3.3827 N.ar    1  UNL1       -0.3094
     35 C          64.7130   94.6374   -4.6440 C.3     1  UNL1        0.1319
@<TRIPOS>BOND
     1    17    18    1
     2    18    19    1
     3    18    13    1
     4    13    14   am
     5    14    15    2
     6    14     7    1
     7     7     8   ar
     8     8     9   ar
     9     9    10   ar
    10    10    11   ar
    11    11     1    1
    12     1     2   am
    13     2     3    2
    14     2     4   am
    15     4    20    1
    16    20    21   ar
    17    21    22   ar
    18    22    23   ar
    19    23    26    1
    20    26    27   ar
    21    27    28   ar
    22    28    29   ar
    23    29    30   ar
    24    30    31   ar
    25    31    32   ar
    26    32    33   ar
    27    33    34   ar
    28    34    35    1
    29    23    24   ar
    30    24    25   ar
    31    11    12   ar
    32    12     7   ar
    33    25    20   ar
    34    31    26   ar
    35    34    30   ar
    36    13    16    1
    37     1     5    1
    38     4     6    1
@<TRIPOS>MOLECULE
*****
 35 38 0 0 0
SMALL
GASTEIGER

@<TRIPOS>ATOM
      1 N          64.3285   90.6559   15.9355 N.am    1  UNL1       -0.2681
      2 C          64.1915   89.2582   15.4083 C.2     1  UNL1        0.3082
      3 O          65.0069   88.8184   14.2286 O.2     1  UNL1       -0.2522
      4 N          63.2391   88.3005   16.0607 N.am    1  UNL1       -0.2681
      5 H          63.7933   90.9446   16.7098 H       1  UNL1        0.1564
      6 H          62.7040   88.5892   16.8350 H       1  UNL1        0.1564
      7 C          66.3246   92.6360   13.1347 C.ar    1  UNL1        0.0546
      8 C          67.1855   93.5291   13.9780 C.ar    1  UNL1        0.0046
      9 C          67.0941   93.4645   15.4739 C.ar    1  UNL1        0.0014
     10 C          66.1417   92.5067   16.1264 C.ar    1  UNL1        0.0147
     11 C          65.2808   91.6136   15.2830 C.ar    1  UNL1        0.0517
     12 C          65.3723   91.6782   13.7873 C.ar    1  UNL1        0.0192
     13 N          67.6332   93.2864   10.9865 N.am    1  UNL1       -0.3025
     14 C          66.4161   92.7006   11.6389 C.2     1  UNL1        0.2458
     15 O          65.2905   92.1794   10.7955 O.2     1  UNL1       -0.2701
     16 H          68.3719   93.6285   11.5401 H       1  UNL1        0.1497
     17 C          67.0363   94.4551    8.7443 C.3     1  UNL1        0.0213
     18 C          67.7246   93.3510    9.4907 C.3     1  UNL1        0.0720
     19 C          68.5043   92.3115    8.7414 C.3     1  UNL1        0.0213
     20 C          63.1022   86.9030   15.5335 C.ar    1  UNL1        0.0516
     21 C          62.5005   85.8321   16.3945 C.ar    1  UNL1        0.0148
     22 C          62.3635   84.4345   15.8673 C.ar    1  UNL1        0.0028
     23 C          62.8282   84.1077   14.4790 C.ar    1  UNL1        0.0179
     24 C          63.4299   85.1785   13.6180 C.ar    1  UNL1        0.0028
     25 C          63.5669   86.5762   14.1452 C.ar    1  UNL1        0.0148
     26 C          62.6912   82.7101   13.9518 C.ar    1  UNL1        0.0859
     27 N          62.2455   81.6051   14.8630 N.ar    1  UNL1       -0.2239
     28 C          62.1085   80.2076   14.3357 C.ar    1  UNL1        0.2002
     29 N          62.4173   79.9150   12.8973 N.ar    1  UNL1       -0.2065
     30 C          62.8631   81.0200   11.9861 C.ar    1  UNL1        0.1471
     31 C          63.0000   82.4175   12.5134 C.ar    1  UNL1        0.0534
     32 C          63.4567   83.2956   11.3862 C.ar    1  UNL1        0.0232
     33 C          63.6020   82.4406   10.1623 C.ar    1  UNL1        0.0772
     34 N          63.2351   81.0342   10.5331 N.ar    1  UNL1       -0.3094
     35 C          63.2394   79.8500    9.6125 C.3     1  UNL1        0.1319
@<TRIPOS>BOND
     1    17    18    1
     2    18    19    1
     3    18    13    1
     4    13    14   am
     5    14    15    2
     6    14     7    1
     7     7     8   ar
     8     8     9   ar
     9     9    10   ar
    10    10    11   ar
    11    11     1    1
    12     1     2   am
    13     2     3    2
    14     2     4   am
    15     4    20    1
    16    20    21   ar
    17    21    22   ar
    18    22    23   ar
    19    23    26    1
    20    26    27   ar
    21    27    28   ar
    22    28    29   ar
    23    29    30   ar
    24    30    31   ar
    25    31    32   ar
    26    32    33   ar
    27    33    34   ar
    28    34    35    1
    29    23    24   ar
    30    24    25   ar
    31    11    12   ar
    32    12     7   ar
    33    25    20   ar
    34    31    26   ar
    35    34    30   ar
    36    13    16    1
    37     1     5    1
    38     4     6    1
@<TRIPOS>MOLECULE
*****
 35 38 0 0 0
SMALL
GASTEIGER

@<TRIPOS>ATOM
      1 N          59.6288   87.8374    8.7257 N.am    1  UNL1       -0.2681
      2 C          59.9029   88.9298    7.7349 C.2     1  UNL1        0.3082
      3 O          61.1970   89.6861    7.7913 O.2     1  UNL1       -0.2522
      4 N          58.8828   89.2658    6.6877 N.am    1  UNL1       -0.2681
      5 H          58.7794   87.3410    8.6887 H       1  UNL1        0.1564
      6 H          58.0335   88.7694    6.6507 H       1  UNL1        0.1564
      7 C          62.2821   88.2564   11.6470 C.ar    1  UNL1        0.0546
      8 C          62.6889   86.8295   11.8673 C.ar    1  UNL1        0.0046
      9 C          62.0756   85.7386   11.0404 C.ar    1  UNL1        0.0014
     10 C          61.0556   86.0745    9.9932 C.ar    1  UNL1        0.0147
     11 C          60.6488   87.5014    9.7729 C.ar    1  UNL1        0.0517
     12 C          61.2621   88.5923   10.5998 C.ar    1  UNL1        0.0192
     13 N          63.5794   89.0141   13.7667 N.am    1  UNL1       -0.3025
     14 C          62.8954   89.3473   12.4739 C.2     1  UNL1        0.2458
     15 O          62.8248   90.7714   12.0081 O.2     1  UNL1       -0.2701
     16 H          63.6258   88.0795   14.0725 H       1  UNL1        0.1497
     17 C          63.5999   90.4603   15.9249 C.3     1  UNL1        0.0213
     18 C          64.1926   90.1050   14.5936 C.3     1  UNL1        0.0720
     19 C          65.3986   90.8407   14.0892 C.3     1  UNL1        0.0213
     20 C          59.1570   90.3581    5.6970 C.ar    1  UNL1        0.0516
     21 C          58.0378   91.2347    5.2182 C.ar    1  UNL1        0.0148
     22 C          58.3119   92.3270    4.2275 C.ar    1  UNL1        0.0028
     23 C          59.7052   92.5428    3.7154 C.ar    1  UNL1        0.0179
     24 C          60.8243   91.6663    4.1941 C.ar    1  UNL1        0.0028
     25 C          60.5502   90.5739    5.1849 C.ar    1  UNL1        0.0148
     26 C          59.9792   93.6352    2.7246 C.ar    1  UNL1        0.0859
     27 N          60.0718   95.0597    3.1852 N.ar    1  UNL1       -0.2239
     28 C          60.3458   96.1520    2.1945 C.ar    1  UNL1        0.2002
     29 N          60.5274   95.8198    0.7430 N.ar    1  UNL1       -0.2065
     30 C          60.4349   94.3953    0.2823 C.ar    1  UNL1        0.1471
     31 C          60.1608   93.3030    1.2731 C.ar    1  UNL1        0.0534
     32 C          60.1250   92.0008    0.5294 C.ar    1  UNL1        0.0232
     33 C          60.3769   92.2884   -0.9210 C.ar    1  UNL1        0.0772
     34 N          60.5684   93.7683   -1.0737 N.ar    1  UNL1       -0.3094
     35 C          60.8450   94.4938   -2.3571 C.3     1  UNL1        0.1319
@<TRIPOS>BOND
     1    17    18    1
     2    18    19    1
     3    18    13    1
     4    13    14   am
     5    14    15    2
     6    14     7    1
     7     7     8   ar
     8     8     9   ar
     9     9    10   ar
    10    10    11   ar
    11    11     1    1
    12     1     2   am
    13     2     3    2
    14     2     4   am
    15     4    20    1
    16    20    21   ar
    17    21    22   ar
    18    22    23   ar
    19    23    26    1
    20    26    27   ar
    21    27    28   ar
    22    28    29   ar
    23    29    30   ar
    24    30    31   ar
    25    31    32   ar
    26    32    33   ar
    27    33    34   ar
    28    34    35    1
    29    23    24   ar
    30    24    25   ar
    31    11    12   ar
    32    12     7   ar
    33    25    20   ar
    34    31    26   ar
    35    34    30   ar
    36    13    16    1
    37     1     5    1
    38     4     6    1
@<TRIPOS>MOLECULE
*****
 35 38 0 0 0
SMALL
GASTEIGER

@<TRIPOS>ATOM
      1 N          58.9030   92.0237    4.0512 N.am    1  UNL1       -0.2681
      2 C          59.5386   91.0794    5.0282 C.2     1  UNL1        0.3082
      3 O          60.9507   90.6196    4.8166 O.2     1  UNL1       -0.2522
      4 N          58.7622   90.5949    6.2166 N.am    1  UNL1       -0.2681
      5 H          57.9763   92.3255    4.1900 H       1  UNL1        0.1564
      6 H          57.8354   90.8967    6.3554 H       1  UNL1        0.1564
      7 C          59.7728   93.1592    0.3493 C.ar    1  UNL1        0.0546
      8 C          61.2323   93.4772    0.4858 C.ar    1  UNL1        0.0046
      9 C          61.9154   93.3106    1.8109 C.ar    1  UNL1        0.0014
     10 C          61.1390   92.8261    2.9993 C.ar    1  UNL1        0.0147
     11 C          59.6795   92.5082    2.8628 C.ar    1  UNL1        0.0517
     12 C          58.9963   92.6747    1.5378 C.ar    1  UNL1        0.0192
     13 N          57.9234   92.4527   -1.3332 N.am    1  UNL1       -0.3025
     14 C          59.0897   93.3257   -0.9757 C.2     1  UNL1        0.2458
     15 O          59.5728   94.3652   -1.9432 O.2     1  UNL1       -0.2701
     16 H          57.6063   91.7704   -0.6982 H       1  UNL1        0.1497
     17 C          57.6980   91.8218   -3.8433 C.3     1  UNL1        0.0213
     18 C          57.2403   92.6192   -2.6581 C.3     1  UNL1        0.0720
     19 C          56.0995   93.5830   -2.7979 C.3     1  UNL1        0.0213
     20 C          59.3978   89.6507    7.1935 C.ar    1  UNL1        0.0516
     21 C          60.2492   90.1845    8.3072 C.ar    1  UNL1        0.0148
     22 C          60.8848   89.2403    9.2841 C.ar    1  UNL1        0.0028
     23 C          60.6691   87.7622    9.1473 C.ar    1  UNL1        0.0179
     24 C          59.8178   87.2283    8.0337 C.ar    1  UNL1        0.0028
     25 C          59.1822   88.1726    7.0567 C.ar    1  UNL1        0.0148
     26 C          61.3048   86.8179   10.1243 C.ar    1  UNL1        0.0859
     27 N          61.0336   86.9629   11.5924 N.ar    1  UNL1       -0.2239
     28 C          61.6693   86.0186   12.5692 C.ar    1  UNL1        0.2002
     29 N          62.5761   84.9294   12.0780 N.ar    1  UNL1       -0.2065
     30 C          62.8473   84.7845   10.6099 C.ar    1  UNL1        0.1471
     31 C          62.2116   85.7287    9.6330 C.ar    1  UNL1        0.0534
     32 C          62.6620   85.3429    8.2552 C.ar    1  UNL1        0.0232
     33 C          63.5760   84.1602    8.3806 C.ar    1  UNL1        0.0772
     34 N          63.6905   83.8151    9.8359 N.ar    1  UNL1       -0.3094
     35 C          64.5052   82.6969   10.4154 C.3     1  UNL1        0.1319
@<TRIPOS>BOND
     1    17    18    1
     2    18    19    1
     3    18    13    1
     4    13    14   am
     5    14    15    2
     6    14     7    1
     7     7     8   ar
     8     8     9   ar
     9     9    10   ar
    10    10    11   ar
    11    11     1    1
    12     1     2   am
    13     2     3    2
    14     2     4   am
    15     4    20    1
    16    20    21   ar
    17    21    22   ar
    18    22    23   ar
    19    23    26    1
    20    26    27   ar
    21    27    28   ar
    22    28    29   ar
    23    29    30   ar
    24    30    31   ar
    25    31    32   ar
    26    32    33   ar
    27    33    34   ar
    28    34    35    1
    29    23    24   ar
    30    24    25   ar
    31    11    12   ar
    32    12     7   ar
    33    25    20   ar
    34    31    26   ar
    35    34    30   ar
    36    13    16    1
    37     1     5    1
    38     4     6    1
@<TRIPOS>MOLECULE
*****
 35 38 0 0 0
SMALL
GASTEIGER

@<TRIPOS>ATOM
      1 N          59.6905   87.8170    8.7387 N.am    1  UNL1       -0.2681
      2 C          59.9300   88.9217    7.7526 C.2     1  UNL1        0.3082
      3 O          61.1694   89.7608    7.8528 O.2     1  UNL1       -0.2522
      4 N          58.9302   89.1873    6.6664 N.am    1  UNL1       -0.2681
      5 H          58.8771   87.2663    8.6730 H       1  UNL1        0.1564
      6 H          58.1168   88.6366    6.6007 H       1  UNL1        0.1564
      7 C          62.1739   85.8879   11.1597 C.ar    1  UNL1        0.0546
      8 C          62.6899   87.0202   11.9974 C.ar    1  UNL1        0.0046
      9 C          62.2060   88.4181   11.7488 C.ar    1  UNL1        0.0014
     10 C          61.2063   88.6837   10.6626 C.ar    1  UNL1        0.0147
     11 C          60.6903   87.5514    9.8249 C.ar    1  UNL1        0.0517
     12 C          61.1741   86.1535   10.0735 C.ar    1  UNL1        0.0192
     13 N          62.4277   83.8427   12.7417 N.am    1  UNL1       -0.3025
     14 C          62.6577   84.4900   11.4083 C.2     1  UNL1        0.2458
     15 O          63.3716   83.7394   10.3234 O.2     1  UNL1       -0.2701
     16 H          61.9591   84.3353   13.4538 H       1  UNL1        0.1497
     17 C          64.3829   82.1570   13.0332 C.3     1  UNL1        0.0213
     18 C          62.9115   82.4448   12.9903 C.3     1  UNL1        0.0720
     19 C          61.9238   81.3347   13.1959 C.3     1  UNL1        0.0213
     20 C          59.1698   90.2919    5.6804 C.ar    1  UNL1        0.0516
     21 C          58.0226   91.1309    5.2006 C.ar    1  UNL1        0.0148
     22 C          58.2621   92.2355    4.2145 C.ar    1  UNL1        0.0028
     23 C          59.6488   92.5013    3.7083 C.ar    1  UNL1        0.0179
     24 C          60.7960   91.6624    4.1880 C.ar    1  UNL1        0.0028
     25 C          60.5565   90.5577    5.1741 C.ar    1  UNL1        0.0148
     26 C          59.8884   93.6060    2.7222 C.ar    1  UNL1        0.0859
     27 N          60.1273   95.0052    3.2069 N.ar    1  UNL1       -0.2239
     28 C          60.3668   96.1099    2.2208 C.ar    1  UNL1        0.2002
     29 N          60.3673   95.8153    0.7500 N.ar    1  UNL1       -0.2065
     30 C          60.1284   94.4160    0.2653 C.ar    1  UNL1        0.1471
     31 C          59.8889   93.3114    1.2514 C.ar    1  UNL1        0.0534
     32 C          59.6840   92.0398    0.4824 C.ar    1  UNL1        0.0232
     33 C          59.7969   92.3587   -0.9790 C.ar    1  UNL1        0.0772
     34 N          60.0715   93.8272   -1.1131 N.ar    1  UNL1       -0.3094
     35 C          60.2568   94.5756   -2.3998 C.3     1  UNL1        0.1319
@<TRIPOS>BOND
     1    17    18    1
     2    18    19    1
     3    18    13    1
     4    13    14   am
     5    14    15    2
     6    14     7    1
     7     7     8   ar
     8     8     9   ar
     9     9    10   ar
    10    10    11   ar
    11    11     1    1
    12     1     2   am
    13     2     3    2
    14     2     4   am
    15     4    20    1
    16    20    21   ar
    17    21    22   ar
    18    22    23   ar
    19    23    26    1
    20    26    27   ar
    21    27    28   ar
    22    28    29   ar
    23    29    30   ar
    24    30    31   ar
    25    31    32   ar
    26    32    33   ar
    27    33    34   ar
    28    34    35    1
    29    23    24   ar
    30    24    25   ar
    31    11    12   ar
    32    12     7   ar
    33    25    20   ar
    34    31    26   ar
    35    34    30   ar
    36    13    16    1
    37     1     5    1
    38     4     6    1
@<TRIPOS>MOLECULE
*****
 35 38 0 0 0
SMALL
GASTEIGER

@<TRIPOS>ATOM
      1 N          58.7024   91.6876    4.0871 N.am    1  UNL1       -0.2681
      2 C          59.4321   90.9053    5.1385 C.2     1  UNL1        0.3082
      3 O          60.9302   90.8331    5.1151 O.2     1  UNL1       -0.2522
      4 N          58.6638   90.1951    6.2134 N.am    1  UNL1       -0.2681
      5 H          57.7192   91.7350    4.1025 H       1  UNL1        0.1564
      6 H          57.6805   90.2425    6.2288 H       1  UNL1        0.1564
      7 C          59.6145   93.3317    0.5921 C.ar    1  UNL1        0.0546
      8 C          61.0074   93.8181    0.8625 C.ar    1  UNL1        0.0046
      9 C          61.6320   93.5944    2.2079 C.ar    1  UNL1        0.0014
     10 C          60.8637   92.8842    3.2827 C.ar    1  UNL1        0.0147
     11 C          59.4707   92.3978    3.0123 C.ar    1  UNL1        0.0517
     12 C          58.8462   92.6215    1.6670 C.ar    1  UNL1        0.0192
     13 N          57.7976   92.7463   -1.1704 N.am    1  UNL1       -0.3025
     14 C          58.9899   93.5554   -0.7532 C.2     1  UNL1        0.2458
     15 O          59.5576   94.5880   -1.6813 O.2     1  UNL1       -0.2701
     16 H          57.4251   92.0685   -0.5613 H       1  UNL1        0.1497
     17 C          56.0031   93.8984   -2.6543 C.3     1  UNL1        0.0213
     18 C          57.1730   92.9700   -2.5157 C.3     1  UNL1        0.0720
     19 C          57.7185   92.2654   -3.7224 C.3     1  UNL1        0.0213
     20 C          59.3935   89.4128    7.2647 C.ar    1  UNL1        0.0516
     21 C          59.3807   87.9132    7.2279 C.ar    1  UNL1        0.0148
     22 C          60.1104   87.1309    8.2792 C.ar    1  UNL1        0.0028
     23 C          60.8530   87.8481    9.3675 C.ar    1  UNL1        0.0179
     24 C          60.8659   89.3475    9.4044 C.ar    1  UNL1        0.0028
     25 C          60.1361   90.1299    8.3530 C.ar    1  UNL1        0.0148
     26 C          61.5828   87.0657   10.4189 C.ar    1  UNL1        0.0859
     27 N          61.5354   85.5665   10.4062 N.ar    1  UNL1       -0.2239
     28 C          62.2651   84.7842   11.4575 C.ar    1  UNL1        0.2002
     29 N          63.0423   85.5010   12.5216 N.ar    1  UNL1       -0.2065
     30 C          63.0896   87.0002   12.5343 C.ar    1  UNL1        0.1471
     31 C          62.3599   87.7825   11.4829 C.ar    1  UNL1        0.0534
     32 C          62.5871   89.2411   11.7493 C.ar    1  UNL1        0.0232
     33 C          63.4573   89.3602   12.9652 C.ar    1  UNL1        0.0772
     34 N          63.7679   87.9752   13.4504 N.ar    1  UNL1       -0.3094
     35 C          64.6090   87.6265   14.6424 C.3     1  UNL1        0.1319
@<TRIPOS>BOND
     1    17    18    1
     2    18    19    1
     3    18    13    1
     4    13    14   am
     5    14    15    2
     6    14     7    1
     7     7     8   ar
     8     8     9   ar
     9     9    10   ar
    10    10    11   ar
    11    11     1    1
    12     1     2   am
    13     2     3    2
    14     2     4   am
    15     4    20    1
    16    20    21   ar
    17    21    22   ar
    18    22    23   ar
    19    23    26    1
    20    26    27   ar
    21    27    28   ar
    22    28    29   ar
    23    29    30   ar
    24    30    31   ar
    25    31    32   ar
    26    32    33   ar
    27    33    34   ar
    28    34    35    1
    29    23    24   ar
    30    24    25   ar
    31    11    12   ar
    32    12     7   ar
    33    25    20   ar
    34    31    26   ar
    35    34    30   ar
    36    13    16    1
    37     1     5    1
    38     4     6    1
@<TRIPOS>MOLECULE
*****
 35 38 0 0 0
SMALL
GASTEIGER

@<TRIPOS>ATOM
      1 N          62.4229   85.7628   11.9740 N.am    1  UNL1       -0.2681
      2 C          61.8491   86.7487   10.9999 C.2     1  UNL1        0.3082
      3 O          62.1299   88.2133   11.1619 O.2     1  UNL1       -0.2522
      4 N          60.9945   86.2701    9.8639 N.am    1  UNL1       -0.2681
      5 H          62.2386   84.8016   11.8677 H       1  UNL1        0.1564
      6 H          60.8102   85.3089    9.7576 H       1  UNL1        0.1564
      7 C          64.2973   88.1905   14.4926 C.ar    1  UNL1        0.0546
      8 C          64.9867   87.1988   15.3821 C.ar    1  UNL1        0.0046
      9 C          64.8215   85.7284   15.1355 C.ar    1  UNL1        0.0014
     10 C          63.9669   85.2497   13.9995 C.ar    1  UNL1        0.0147
     11 C          63.2775   86.2414   13.1100 C.ar    1  UNL1        0.0517
     12 C          63.4426   87.7118   13.3565 C.ar    1  UNL1        0.0192
     13 N          65.7234   90.3551   14.3172 N.am    1  UNL1       -0.3025
     14 C          64.4624   89.6608   14.7391 C.2     1  UNL1        0.2458
     15 O          63.3666   90.4370   15.4075 O.2     1  UNL1       -0.2701
     16 H          66.4427   89.8456   13.8785 H       1  UNL1        0.1497
     17 C          66.0186   92.3407   15.9664 C.3     1  UNL1        0.0213
     18 C          65.8886   91.8254   14.5637 C.3     1  UNL1        0.0720
     19 C          65.9237   92.7804   13.4076 C.3     1  UNL1        0.0213
     20 C          60.4208   87.2560    8.8899 C.ar    1  UNL1        0.0516
     21 C          60.6541   88.7250    9.0844 C.ar    1  UNL1        0.0148
     22 C          60.0803   89.7109    8.1104 C.ar    1  UNL1        0.0028
     23 C          59.2732   89.2280    6.9419 C.ar    1  UNL1        0.0179
     24 C          59.0399   87.7591    6.7474 C.ar    1  UNL1        0.0028
     25 C          59.6137   86.7731    7.7215 C.ar    1  UNL1        0.0148
     26 C          58.6994   90.2140    5.9679 C.ar    1  UNL1        0.0859
     27 N          57.2170   90.4350    5.9099 N.ar    1  UNL1       -0.2239
     28 C          56.6433   91.4210    4.9359 C.ar    1  UNL1        0.2002
     29 N          57.5521   92.1859    4.0199 N.ar    1  UNL1       -0.2065
     30 C          59.0345   91.9649    4.0779 C.ar    1  UNL1        0.1471
     31 C          59.6082   90.9789    5.0519 C.ar    1  UNL1        0.0534
     32 C          61.0986   90.9728    4.8818 C.ar    1  UNL1        0.0232
     33 C          61.4459   91.9550    3.8026 C.ar    1  UNL1        0.0772
     34 N          60.1703   92.5681    3.3058 N.ar    1  UNL1       -0.3094
     35 C          60.0512   93.6029    2.2264 C.3     1  UNL1        0.1319
@<TRIPOS>BOND
     1    17    18    1
     2    18    19    1
     3    18    13    1
     4    13    14   am
     5    14    15    2
     6    14     7    1
     7     7     8   ar
     8     8     9   ar
     9     9    10   ar
    10    10    11   ar
    11    11     1    1
    12     1     2   am
    13     2     3    2
    14     2     4   am
    15     4    20    1
    16    20    21   ar
    17    21    22   ar
    18    22    23   ar
    19    23    26    1
    20    26    27   ar
    21    27    28   ar
    22    28    29   ar
    23    29    30   ar
    24    30    31   ar
    25    31    32   ar
    26    32    33   ar
    27    33    34   ar
    28    34    35    1
    29    23    24   ar
    30    24    25   ar
    31    11    12   ar
    32    12     7   ar
    33    25    20   ar
    34    31    26   ar
    35    34    30   ar
    36    13    16    1
    37     1     5    1
    38     4     6    1
@<TRIPOS>MOLECULE
*****
 35 38 0 0 0
SMALL
GASTEIGER

@<TRIPOS>ATOM
      1 N          59.7253   88.0146    9.2508 N.am    1  UNL1       -0.2681
      2 C          60.0546   88.9520    8.1269 C.2     1  UNL1        0.3082
      3 O          61.4271   89.5487    8.0257 O.2     1  UNL1       -0.2522
      4 N          59.0115   89.2927    7.1044 N.am    1  UNL1       -0.2681
      5 H          58.8245   87.6230    9.3172 H       1  UNL1        0.1564
      6 H          58.1106   88.9010    7.1708 H       1  UNL1        0.1564
      7 C          62.2068   85.9031   11.5165 C.ar    1  UNL1        0.0546
      8 C          62.8549   86.9925   12.3185 C.ar    1  UNL1        0.0046
      9 C          62.4597   88.4227   12.0979 C.ar    1  UNL1        0.0014
     10 C          61.4165   88.7634   11.0754 C.ar    1  UNL1        0.0147
     11 C          60.7685   87.6739   10.2733 C.ar    1  UNL1        0.0517
     12 C          61.1636   86.2439   10.4939 C.ar    1  UNL1        0.0192
     13 N          62.4141   83.8423   13.0851 N.am    1  UNL1       -0.3025
     14 C          62.6020   84.4730   11.7371 C.2     1  UNL1        0.2458
     15 O          63.1849   83.6736   10.6097 O.2     1  UNL1       -0.2701
     16 H          62.0315   84.3671   13.8250 H       1  UNL1        0.1497
     17 C          61.7747   81.4009   13.7015 C.3     1  UNL1        0.0213
     18 C          62.8092   82.4123   13.3056 C.3     1  UNL1        0.0720
     19 C          64.2389   81.9936   13.1303 C.3     1  UNL1        0.0213
     20 C          59.3408   90.2300    5.9806 C.ar    1  UNL1        0.0516
     21 C          60.7448   90.3114    5.4588 C.ar    1  UNL1        0.0148
     22 C          61.0741   91.2487    4.3351 C.ar    1  UNL1        0.0028
     23 C          59.9995   92.1047    3.7330 C.ar    1  UNL1        0.0179
     24 C          58.5955   92.0233    4.2547 C.ar    1  UNL1        0.0028
     25 C          58.2661   91.0860    5.3785 C.ar    1  UNL1        0.0148
     26 C          60.3289   93.0421    2.6092 C.ar    1  UNL1        0.0859
     27 N          59.2525   93.8915    2.0011 N.ar    1  UNL1       -0.2239
     28 C          59.5819   94.8288    0.8774 C.ar    1  UNL1        0.2002
     29 N          60.9878   94.9167    0.3617 N.ar    1  UNL1       -0.2065
     30 C          62.0642   94.0673    0.9697 C.ar    1  UNL1        0.1471
     31 C          61.7347   93.1300    2.0935 C.ar    1  UNL1        0.0534
     32 C          62.9959   92.4221    2.4915 C.ar    1  UNL1        0.0232
     33 C          64.1048   92.9220    1.6137 C.ar    1  UNL1        0.0772
     34 N          63.5289   93.9387    0.6732 N.ar    1  UNL1       -0.3094
     35 C          64.2850   94.6943   -0.3791 C.3     1  UNL1        0.1319
@<TRIPOS>BOND
     1    17    18    1
     2    18    19    1
     3    18    13    1
     4    13    14   am
     5    14    15    2
     6    14     7    1
     7     7     8   ar
     8     8     9   ar
     9     9    10   ar
    10    10    11   ar
    11    11     1    1
    12     1     2   am
    13     2     3    2
    14     2     4   am
    15     4    20    1
    16    20    21   ar
    17    21    22   ar
    18    22    23   ar
    19    23    26    1
    20    26    27   ar
    21    27    28   ar
    22    28    29   ar
    23    29    30   ar
    24    30    31   ar
    25    31    32   ar
    26    32    33   ar
    27    33    34   ar
    28    34    35    1
    29    23    24   ar
    30    24    25   ar
    31    11    12   ar
    32    12     7   ar
    33    25    20   ar
    34    31    26   ar
    35    34    30   ar
    36    13    16    1
    37     1     5    1
    38     4     6    1
@<TRIPOS>MOLECULE
*****
 35 38 0 0 0
SMALL
GASTEIGER

@<TRIPOS>ATOM
      1 N          58.7844   89.6025    6.7784 N.am    1  UNL1       -0.2681
      2 C          59.5660   90.3219    5.7192 C.2     1  UNL1        0.3082
      3 O          61.0558   90.1628    5.6483 O.2     1  UNL1       -0.2522
      4 N          58.8577   91.2003    4.7309 N.am    1  UNL1       -0.2681
      5 H          57.8066   89.7070    6.8249 H       1  UNL1        0.1564
      6 H          57.8798   91.3047    4.7775 H       1  UNL1        0.1564
      7 C          60.8444   88.4490    9.9683 C.ar    1  UNL1        0.0546
      8 C          60.9094   86.9674    9.7432 C.ar    1  UNL1        0.0046
      9 C          60.2661   86.3642    8.5298 C.ar    1  UNL1        0.0014
     10 C          59.5578   87.2426    7.5415 C.ar    1  UNL1        0.0147
     11 C          59.4928   88.7242    7.7666 C.ar    1  UNL1        0.0517
     12 C          60.1361   89.3274    8.9800 C.ar    1  UNL1        0.0192
     13 N          62.9404   89.4251   11.1533 N.am    1  UNL1       -0.3025
     14 C          61.4877   89.0522   11.1817 C.2     1  UNL1        0.2458
     15 O          60.6784   89.2826   12.4234 O.2     1  UNL1       -0.2701
     16 H          63.4716   89.2739   10.3383 H       1  UNL1        0.1497
     17 C          63.6128   89.2652   13.6577 C.3     1  UNL1        0.0213
     18 C          63.5837   90.0283   12.3667 C.3     1  UNL1        0.0720
     19 C          64.1979   91.3945   12.2890 C.3     1  UNL1        0.0213
     20 C          59.6392   91.9195    3.6718 C.ar    1  UNL1        0.0516
     21 C          61.1353   91.8152    3.6427 C.ar    1  UNL1        0.0148
     22 C          61.9169   92.5344    2.5836 C.ar    1  UNL1        0.0028
     23 C          61.2024   93.3581    1.5535 C.ar    1  UNL1        0.0179
     24 C          59.7063   93.4625    1.5826 C.ar    1  UNL1        0.0028
     25 C          58.9247   92.7432    2.6417 C.ar    1  UNL1        0.0148
     26 C          61.9840   94.0774    0.4943 C.ar    1  UNL1        0.0859
     27 N          61.4718   94.1231   -0.9147 N.ar    1  UNL1       -0.2239
     28 C          62.2534   94.8424   -1.9738 C.ar    1  UNL1        0.2002
     29 N          63.5472   95.5159   -1.6238 N.ar    1  UNL1       -0.2065
     30 C          64.0594   95.4701   -0.2148 C.ar    1  UNL1        0.1471
     31 C          63.2778   94.7509    0.8443 C.ar    1  UNL1        0.0534
     32 C          64.0279   94.8733    2.1376 C.ar    1  UNL1        0.0232
     33 C          65.2731   95.6682    1.8777 C.ar    1  UNL1        0.0772
     34 N          65.2926   96.0371    0.4239 N.ar    1  UNL1       -0.3094
     35 C          66.3581   96.8331   -0.2695 C.3     1  UNL1        0.1319
@<TRIPOS>BOND
     1    17    18    1
     2    18    19    1
     3    18    13    1
     4    13    14   am
     5    14    15    2
     6    14     7    1
     7     7     8   ar
     8     8     9   ar
     9     9    10   ar
    10    10    11   ar
    11    11     1    1
    12     1     2   am
    13     2     3    2
    14     2     4   am
    15     4    20    1
    16    20    21   ar
    17    21    22   ar
    18    22    23   ar
    19    23    26    1
    20    26    27   ar
    21    27    28   ar
    22    28    29   ar
    23    29    30   ar
    24    30    31   ar
    25    31    32   ar
    26    32    33   ar
    27    33    34   ar
    28    34    35    1
    29    23    24   ar
    30    24    25   ar
    31    11    12   ar
    32    12     7   ar
    33    25    20   ar
    34    31    26   ar
    35    34    30   ar
    36    13    16    1
    37     1     5    1
    38     4     6    1
