@<TRIPOS>MOLECULE
*****
 20 22 0 0 0
SMALL
GASTEIGER

@<TRIPOS>ATOM
      1 O          64.6421   82.2452   10.1431 O.3     1  UNL1       -0.4921
      2 C          63.8598   83.2421   10.9458 C.ar    1  UNL1        0.2203
      3 N          63.7463   83.0839   12.4332 N.ar    1  UNL1       -0.1870
      4 C          62.9642   84.0807   13.2360 C.ar    1  UNL1        0.1926
      5 N          62.2955   85.2358   12.5515 N.ar    1  UNL1       -0.2257
      6 C          62.4089   85.3941   11.0642 C.ar    1  UNL1        0.0616
      7 C          63.1911   84.3972   10.2614 C.ar    1  UNL1        0.0444
      8 C          63.1279   84.8103    8.8207 C.3     1  UNL1        0.0327
      9 C          62.3067   86.0624    8.7332 C.3     1  UNL1        0.0112
     10 C          61.8623   86.4232   10.1197 C.3     1  UNL1        0.0461
     11 H          65.0598   81.5237   10.5707 H       1  UNL1        0.2937
     12 S          62.8507   83.9225   14.7233 S.3     1  UNL1       -0.0708
     13 C          63.8140   84.6315   15.6286 C.3     1  UNL1        0.0913
     14 C          63.7458   86.1226   15.7761 C.ar    1  UNL1       -0.0108
     15 C          63.0520   86.7282   16.9602 C.ar    1  UNL1       -0.0025
     16 C          62.9838   88.2194   17.1077 C.ar    1  UNL1        0.0111
     17 C          63.6093   89.1049   16.0711 C.ar    1  UNL1        0.0577
     18 CL         63.5411   90.5962   16.2186 Cl      1  UNL1       -0.0822
     19 C          64.3030   88.4994   14.8871 C.ar    1  UNL1        0.0111
     20 C          64.3712   87.0083   14.7395 C.ar    1  UNL1       -0.0025
@<TRIPOS>BOND
     1     1     2    1
     2     2     3   ar
     3     3     4   ar
     4     4    12    1
     5    12    13    1
     6    13    14    1
     7    14    15   ar
     8    15    16   ar
     9    16    17   ar
    10    17    18    1
    11    17    19   ar
    12    19    20   ar
    13     4     5   ar
    14     5     6   ar
    15     6     7   ar
    16     7     8    1
    17     8     9    1
    18     9    10    1
    19     7     2   ar
    20    20    14   ar
    21    10     6    1
    22     1    11    1
@<TRIPOS>MOLECULE
*****
 20 22 0 0 0
SMALL
GASTEIGER

@<TRIPOS>ATOM
      1 O          62.7593   89.8607   14.5508 O.3     1  UNL1       -0.4921
      2 C          62.8166   90.1433   13.0787 C.ar    1  UNL1        0.2203
      3 N          61.8365   89.4890   12.1506 N.ar    1  UNL1       -0.1870
      4 C          61.8938   89.7716   10.6787 C.ar    1  UNL1        0.1926
      5 N          62.9312   90.7085   10.1347 N.ar    1  UNL1       -0.2257
      6 C          63.9114   91.3628   11.0627 C.ar    1  UNL1        0.0616
      7 C          63.8540   91.0802   12.5347 C.ar    1  UNL1        0.0444
      8 C          64.9441   91.8666   13.2005 C.3     1  UNL1        0.0327
      9 C          65.6752   92.6352   12.1399 C.3     1  UNL1        0.0112
     10 C          65.0369   92.3239   10.8187 C.3     1  UNL1        0.0461
     11 H          62.1112   89.2754   14.8905 H       1  UNL1        0.2937
     12 S          60.9137   89.1173    9.7505 S.3     1  UNL1       -0.0708
     13 C          60.4258   87.7274   10.0336 C.3     1  UNL1        0.0913
     14 C          61.3913   86.5795   10.0356 C.ar    1  UNL1       -0.0108
     15 C          62.1252   86.2145    8.7792 C.ar    1  UNL1       -0.0025
     16 C          63.0907   85.0665    8.7813 C.ar    1  UNL1        0.0111
     17 C          63.3224   84.2836   10.0395 C.ar    1  UNL1        0.0577
     18 CL         64.2879   83.1356   10.0416 Cl      1  UNL1       -0.0822
     19 C          62.5886   84.6486   11.2958 C.ar    1  UNL1        0.0111
     20 C          61.6230   85.7965   11.2939 C.ar    1  UNL1       -0.0025
@<TRIPOS>BOND
     1     1     2    1
     2     2     3   ar
     3     3     4   ar
     4     4    12    1
     5    12    13    1
     6    13    14    1
     7    14    15   ar
     8    15    16   ar
     9    16    17   ar
    10    17    18    1
    11    17    19   ar
    12    19    20   ar
    13     4     5   ar
    14     5     6   ar
    15     6     7   ar
    16     7     8    1
    17     8     9    1
    18     9    10    1
    19     7     2   ar
    20    20    14   ar
    21    10     6    1
    22     1    11    1
@<TRIPOS>MOLECULE
*****
 20 22 0 0 0
SMALL
GASTEIGER

@<TRIPOS>ATOM
      1 O          64.6421   92.7875   10.3523 O.3     1  UNL1       -0.4921
      2 C          63.9111   91.6025   10.9102 C.ar    1  UNL1        0.2203
      3 N          62.8750   90.9022   10.0817 N.ar    1  UNL1       -0.1870
      4 C          62.1439   89.7172   10.6395 C.ar    1  UNL1        0.1926
      5 N          62.4488   89.2324   12.0259 N.ar    1  UNL1       -0.2257
      6 C          63.4848   89.9326   12.8544 C.ar    1  UNL1        0.0616
      7 C          64.2159   91.1176   12.2965 C.ar    1  UNL1        0.0444
      8 C          65.1781   91.6021   13.3403 C.3     1  UNL1        0.0327
      9 C          65.0416   90.7165   14.5432 C.3     1  UNL1        0.0112
     10 C          63.9951   89.6847   14.2430 C.3     1  UNL1        0.0461
     11 H          64.4517   93.0903    9.4862 H       1  UNL1        0.2937
     12 S          61.1079   89.0170    9.8110 S.3     1  UNL1       -0.0708
     13 C          60.6167   87.6586   10.2156 C.3     1  UNL1        0.0913
     14 C          61.5465   86.4823   10.1754 C.ar    1  UNL1       -0.0108
     15 C          62.2270   86.1076    8.8921 C.ar    1  UNL1       -0.0025
     16 C          63.1568   84.9312    8.8521 C.ar    1  UNL1        0.0111
     17 C          63.4060   84.1295   10.0950 C.ar    1  UNL1        0.0577
     18 CL         64.3358   82.9531   10.0549 Cl      1  UNL1       -0.0822
     19 C          62.7256   84.5041   11.3782 C.ar    1  UNL1        0.0111
     20 C          61.7958   85.6805   11.4184 C.ar    1  UNL1       -0.0025
@<TRIPOS>BOND
     1     1     2    1
     2     2     3   ar
     3     3     4   ar
     4     4    12    1
     5    12    13    1
     6    13    14    1
     7    14    15   ar
     8    15    16   ar
     9    16    17   ar
    10    17    18    1
    11    17    19   ar
    12    19    20   ar
    13     4     5   ar
    14     5     6   ar
    15     6     7   ar
    16     7     8    1
    17     8     9    1
    18     9    10    1
    19     7     2   ar
    20    20    14   ar
    21    10     6    1
    22     1    11    1
@<TRIPOS>MOLECULE
*****
 20 22 0 0 0
SMALL
GASTEIGER

@<TRIPOS>ATOM
      1 O          64.6078   92.8376   17.5257 O.3     1  UNL1       -0.4921
      2 C          64.9176   92.2149   16.1966 C.ar    1  UNL1        0.2203
      3 N          63.8469   91.4819   15.4440 N.ar    1  UNL1       -0.1870
      4 C          64.1567   90.8592   14.1150 C.ar    1  UNL1        0.1926
      5 N          65.5371   90.9694   13.5386 N.ar    1  UNL1       -0.2257
      6 C          66.6078   91.7023   14.2912 C.ar    1  UNL1        0.0616
      7 C          66.2980   92.3251   15.6202 C.ar    1  UNL1        0.0444
      8 C          67.5482   92.9805   16.1277 C.3     1  UNL1        0.0327
      9 C          68.6306   92.7628   15.1123 C.3     1  UNL1        0.0112
     10 C          68.0494   91.9729   13.9773 C.3     1  UNL1        0.0461
     11 H          63.7455   92.7687   17.8857 H       1  UNL1        0.2937
     12 S          63.0860   90.1262   13.3623 S.3     1  UNL1       -0.0708
     13 C          62.9003   90.3704   11.8941 C.3     1  UNL1        0.0913
     14 C          62.2355   89.3325   11.0393 C.ar    1  UNL1       -0.0108
     15 C          61.3258   89.7510    9.9224 C.ar    1  UNL1       -0.0025
     16 C          60.6610   88.7130    9.0677 C.ar    1  UNL1        0.0111
     17 C          60.9058   87.2566    9.3298 C.ar    1  UNL1        0.0577
     18 CL         60.2409   86.2185    8.4750 Cl      1  UNL1       -0.0822
     19 C          61.8154   86.8380   10.4466 C.ar    1  UNL1        0.0111
     20 C          62.4803   87.8760   11.3014 C.ar    1  UNL1       -0.0025
@<TRIPOS>BOND
     1     1     2    1
     2     2     3   ar
     3     3     4   ar
     4     4    12    1
     5    12    13    1
     6    13    14    1
     7    14    15   ar
     8    15    16   ar
     9    16    17   ar
    10    17    18    1
    11    17    19   ar
    12    19    20   ar
    13     4     5   ar
    14     5     6   ar
    15     6     7   ar
    16     7     8    1
    17     8     9    1
    18     9    10    1
    19     7     2   ar
    20    20    14   ar
    21    10     6    1
    22     1    11    1
@<TRIPOS>MOLECULE
*****
 20 22 0 0 0
SMALL
GASTEIGER

@<TRIPOS>ATOM
      1 O          58.2985   86.7447    7.8174 O.3     1  UNL1       -0.4921
      2 C          59.6181   86.9579    8.4981 C.ar    1  UNL1        0.2203
      3 N          59.7433   87.9813    9.5877 N.ar    1  UNL1       -0.1870
      4 C          61.0627   88.1945   10.2684 C.ar    1  UNL1        0.1926
      5 N          62.2571   87.3843    9.8597 N.ar    1  UNL1       -0.2257
      6 C          62.1320   86.3609    8.7702 C.ar    1  UNL1        0.0616
      7 C          60.8125   86.1477    8.0894 C.ar    1  UNL1        0.0444
      8 C          60.9918   85.0751    7.0563 C.3     1  UNL1        0.0327
      9 C          62.4222   84.6254    7.0986 C.3     1  UNL1        0.0112
     10 C          63.1268   85.4200    8.1578 C.3     1  UNL1        0.0461
     11 H          57.5525   87.2509    8.0728 H       1  UNL1        0.2937
     12 S          61.1879   89.2178   11.3580 S.3     1  UNL1       -0.0708
     13 C          62.0669   90.4175   11.1626 C.3     1  UNL1        0.0913
     14 C          63.2254   90.6567   12.0850 C.ar    1  UNL1       -0.0108
     15 C          64.1756   91.7864   11.8183 C.ar    1  UNL1       -0.0025
     16 C          65.3341   92.0254   12.7407 C.ar    1  UNL1        0.0111
     17 C          65.5424   91.1349   13.9296 C.ar    1  UNL1        0.0577
     18 CL         66.7009   91.3740   14.8520 Cl      1  UNL1       -0.0822
     19 C          64.5922   90.0053   14.1962 C.ar    1  UNL1        0.0111
     20 C          63.4337   89.7662   13.2739 C.ar    1  UNL1       -0.0025
@<TRIPOS>BOND
     1     1     2    1
     2     2     3   ar
     3     3     4   ar
     4     4    12    1
     5    12    13    1
     6    13    14    1
     7    14    15   ar
     8    15    16   ar
     9    16    17   ar
    10    17    18    1
    11    17    19   ar
    12    19    20   ar
    13     4     5   ar
    14     5     6   ar
    15     6     7   ar
    16     7     8    1
    17     8     9    1
    18     9    10    1
    19     7     2   ar
    20    20    14   ar
    21    10     6    1
    22     1    11    1
@<TRIPOS>MOLECULE
*****
 20 22 0 0 0
SMALL
GASTEIGER

@<TRIPOS>ATOM
      1 O          63.6313   90.0173   14.9615 O.3     1  UNL1       -0.4921
      2 C          63.3146   90.3011   13.5230 C.ar    1  UNL1        0.2203
      3 N          62.1055   89.6833   12.8853 N.ar    1  UNL1       -0.1870
      4 C          61.7887   89.9670   11.4469 C.ar    1  UNL1        0.1926
      5 N          62.6809   90.8685   10.6461 N.ar    1  UNL1       -0.2257
      6 C          63.8899   91.4862   11.2837 C.ar    1  UNL1        0.0616
      7 C          64.2068   91.2025   12.7222 C.ar    1  UNL1        0.0444
      8 C          65.4585   91.9490   13.0771 C.3     1  UNL1        0.0327
      9 C          65.9152   92.6941   11.8580 C.3     1  UNL1        0.0112
     10 C          64.9458   92.4081   10.7496 C.3     1  UNL1        0.0461
     11 H          63.0740   89.4542   15.4617 H       1  UNL1        0.2937
     12 S          60.5796   89.3493   10.8092 S.3     1  UNL1       -0.0708
     13 C          60.3838   87.8628   10.8563 C.3     1  UNL1        0.0913
     14 C          60.7848   87.0161    9.6848 C.ar    1  UNL1       -0.0108
     15 C          62.1806   86.4742    9.5938 C.ar    1  UNL1       -0.0025
     16 C          62.5814   85.6275    8.4223 C.ar    1  UNL1        0.0111
     17 C          61.5866   85.3228    7.3419 C.ar    1  UNL1        0.0577
     18 CL         61.9875   84.4760    6.1703 Cl      1  UNL1       -0.0822
     19 C          60.1909   85.8647    7.4328 C.ar    1  UNL1        0.0111
     20 C          59.7900   86.7114    8.6043 C.ar    1  UNL1       -0.0025
@<TRIPOS>BOND
     1     1     2    1
     2     2     3   ar
     3     3     4   ar
     4     4    12    1
     5    12    13    1
     6    13    14    1
     7    14    15   ar
     8    15    16   ar
     9    16    17   ar
    10    17    18    1
    11    17    19   ar
    12    19    20   ar
    13     4     5   ar
    14     5     6   ar
    15     6     7   ar
    16     7     8    1
    17     8     9    1
    18     9    10    1
    19     7     2   ar
    20    20    14   ar
    21    10     6    1
    22     1    11    1
@<TRIPOS>MOLECULE
*****
 20 22 0 0 0
SMALL
GASTEIGER

@<TRIPOS>ATOM
      1 O          68.4562   92.4020    8.4979 O.3     1  UNL1       -0.4921
      2 C          67.7097   93.0512    9.6256 C.ar    1  UNL1        0.2203
      3 N          67.2973   92.2393   10.8176 N.ar    1  UNL1       -0.1870
      4 C          66.5509   92.8884   11.9452 C.ar    1  UNL1        0.1926
      5 N          66.2168   94.3492   11.8808 N.ar    1  UNL1       -0.2257
      6 C          66.6291   95.1611   10.6888 C.ar    1  UNL1        0.0616
      7 C          67.3756   94.5120    9.5612 C.ar    1  UNL1        0.0444
      8 C          67.6492   95.5594    8.5228 C.3     1  UNL1        0.0327
      9 C          67.0719   96.8557    9.0087 C.3     1  UNL1        0.0112
     10 C          66.4414   96.6096   10.3474 C.3     1  UNL1        0.0461
     11 H          68.6649   91.4894    8.5382 H       1  UNL1        0.2937
     12 S          66.1385   92.0765   13.1373 S.3     1  UNL1       -0.0708
     13 C          64.6877   91.7811   13.3779 C.3     1  UNL1        0.0913
     14 C          63.9451   90.8650   12.4510 C.ar    1  UNL1       -0.0108
     15 C          63.5434   91.3427   11.0869 C.ar    1  UNL1       -0.0025
     16 C          62.8008   90.4264   10.1601 C.ar    1  UNL1        0.0111
     17 C          62.4600   89.0326   10.5971 C.ar    1  UNL1        0.0577
     18 CL         61.7174   88.1164    9.6702 Cl      1  UNL1       -0.0822
     19 C          62.8617   88.5549   11.9611 C.ar    1  UNL1        0.0111
     20 C          63.6043   89.4711   12.8880 C.ar    1  UNL1       -0.0025
@<TRIPOS>BOND
     1     1     2    1
     2     2     3   ar
     3     3     4   ar
     4     4    12    1
     5    12    13    1
     6    13    14    1
     7    14    15   ar
     8    15    16   ar
     9    16    17   ar
    10    17    18    1
    11    17    19   ar
    12    19    20   ar
    13     4     5   ar
    14     5     6   ar
    15     6     7   ar
    16     7     8    1
    17     8     9    1
    18     9    10    1
    19     7     2   ar
    20    20    14   ar
    21    10     6    1
    22     1    11    1
@<TRIPOS>MOLECULE
*****
 20 22 0 0 0
SMALL
GASTEIGER

@<TRIPOS>ATOM
      1 O          62.2985   83.6274   16.0519 O.3     1  UNL1       -0.4921
      2 C          62.4309   83.7111   14.5600 C.ar    1  UNL1        0.2203
      3 N          62.4713   85.0499   13.8846 N.ar    1  UNL1       -0.1870
      4 C          62.6038   85.1337   12.3929 C.ar    1  UNL1        0.1926
      5 N          62.6957   83.8788   11.5764 N.ar    1  UNL1       -0.2257
      6 C          62.6553   82.5400   12.2517 C.ar    1  UNL1        0.0616
      7 C          62.5229   82.4562   13.7435 C.ar    1  UNL1        0.0444
      8 C          62.5102   81.0061   14.1270 C.3     1  UNL1        0.0327
      9 C          62.6348   80.1938   12.8722 C.3     1  UNL1        0.0112
     10 C          62.7245   81.1418   11.7132 C.3     1  UNL1        0.0461
     11 H          62.2410   84.4113   16.5618 H       1  UNL1        0.2937
     12 S          62.6442   86.4725   11.7175 S.3     1  UNL1       -0.0708
     13 C          61.6017   86.8312   10.7004 C.3     1  UNL1        0.0913
     14 C          61.6184   86.1818    9.3484 C.ar    1  UNL1       -0.0108
     15 C          62.8868   85.5787    8.8215 C.ar    1  UNL1       -0.0025
     16 C          62.9033   84.9294    7.4695 C.ar    1  UNL1        0.0111
     17 C          61.6516   84.8831    6.6443 C.ar    1  UNL1        0.0577
     18 CL         61.6682   84.2337    5.2922 Cl      1  UNL1       -0.0822
     19 C          60.3833   85.4861    7.1711 C.ar    1  UNL1        0.0111
     20 C          60.3666   86.1355    8.5231 C.ar    1  UNL1       -0.0025
@<TRIPOS>BOND
     1     1     2    1
     2     2     3   ar
     3     3     4   ar
     4     4    12    1
     5    12    13    1
     6    13    14    1
     7    14    15   ar
     8    15    16   ar
     9    16    17   ar
    10    17    18    1
    11    17    19   ar
    12    19    20   ar
    13     4     5   ar
    14     5     6   ar
    15     6     7   ar
    16     7     8    1
    17     8     9    1
    18     9    10    1
    19     7     2   ar
    20    20    14   ar
    21    10     6    1
    22     1    11    1
@<TRIPOS>MOLECULE
*****
 20 22 0 0 0
SMALL
GASTEIGER

@<TRIPOS>ATOM
      1 O          62.9971   84.9292    7.5146 O.3     1  UNL1       -0.4921
      2 C          62.6604   85.3123    8.9252 C.ar    1  UNL1        0.2203
      3 N          61.8341   86.5352    9.1934 N.ar    1  UNL1       -0.1870
      4 C          61.4974   86.9183   10.6040 C.ar    1  UNL1        0.1926
      5 N          61.9870   86.0787   11.7464 N.ar    1  UNL1       -0.2257
      6 C          62.8133   84.8558   11.4783 C.ar    1  UNL1        0.0616
      7 C          63.1500   84.4726   10.0677 C.ar    1  UNL1        0.0444
      8 C          63.9766   83.2217   10.1119 C.3     1  UNL1        0.0327
      9 C          64.1507   82.8318   11.5498 C.3     1  UNL1        0.0112
     10 C          63.4317   83.8417   12.3943 C.3     1  UNL1        0.0461
     11 H          62.6913   85.4537    6.8009 H       1  UNL1        0.2937
     12 S          60.6711   88.1412   10.8722 S.3     1  UNL1       -0.0708
     13 C          61.1065   89.4728   10.3362 C.3     1  UNL1        0.0913
     14 C          62.2607   90.1940   10.9668 C.ar    1  UNL1       -0.0108
     15 C          63.0724   91.1621   10.1579 C.ar    1  UNL1       -0.0025
     16 C          64.2266   91.8833   10.7886 C.ar    1  UNL1        0.0111
     17 C          64.5692   91.6364   12.2278 C.ar    1  UNL1        0.0577
     18 CL         65.7235   92.3576   12.8584 Cl      1  UNL1       -0.0822
     19 C          63.7577   90.6683   13.0366 C.ar    1  UNL1        0.0111
     20 C          62.6034   89.9471   12.4061 C.ar    1  UNL1       -0.0025
@<TRIPOS>BOND
     1     1     2    1
     2     2     3   ar
     3     3     4   ar
     4     4    12    1
     5    12    13    1
     6    13    14    1
     7    14    15   ar
     8    15    16   ar
     9    16    17   ar
    10    17    18    1
    11    17    19   ar
    12    19    20   ar
    13     4     5   ar
    14     5     6   ar
    15     6     7   ar
    16     7     8    1
    17     8     9    1
    18     9    10    1
    19     7     2   ar
    20    20    14   ar
    21    10     6    1
    22     1    11    1
