@<TRIPOS>MOLECULE
*****
 30 33 0 0 0
SMALL
GASTEIGER

@<TRIPOS>ATOM
      1 C          64.0133   87.8468   14.4237 C.ar    1  UNL1        0.0814
      2 N          64.3207   86.6507   15.2750 N.ar    1  UNL1       -0.2438
      3 C          64.0734   85.2693   14.7449 C.ar    1  UNL1        0.0988
      4 C          63.5187   85.0843   13.3635 C.ar    1  UNL1        0.0207
      5 C          63.2113   86.2805   12.5123 C.ar    1  UNL1        0.0032
      6 C          63.4586   87.6618   13.0424 C.ar    1  UNL1        0.0206
      7 C          63.1512   88.8580   12.1911 C.ar    1  UNL1        0.0363
      8 C          64.0855   90.0314   12.1811 C.ar    1  UNL1        0.0145
      9 C          63.7780   91.2276   11.3299 C.ar    1  UNL1        0.0579
     10 CL         64.7123   92.4011   11.3199 Cl      1  UNL1       -0.0822
     11 C          62.5364   91.2503   10.4887 C.ar    1  UNL1        0.0145
     12 C          61.6021   90.0769   10.4986 C.ar    1  UNL1        0.0378
     13 C          61.9095   88.8807   11.3499 C.ar    1  UNL1        0.1391
     14 O          60.9752   87.7072   11.3599 O.3     1  UNL1       -0.4706
     15 C          60.2517   87.3139   10.1062 C.3     1  UNL1        0.2320
     16 C          60.9451   86.4794    9.0705 C.ar    1  UNL1        0.0212
     17 C          62.3710   86.0614    9.2757 C.ar    1  UNL1       -0.0007
     18 C          63.0644   85.2269    8.2399 C.ar    1  UNL1       -0.0002
     19 C          62.3320   84.8104    6.9989 C.ar    1  UNL1       -0.0000
     20 C          60.9061   85.2284    6.7937 C.ar    1  UNL1       -0.0002
     21 C          60.2126   86.0629    7.8294 C.ar    1  UNL1       -0.0007
     22 C          65.7302   91.3680   15.0591 C.ar    1  UNL1        0.0140
     23 C          64.7551   91.9906   16.0138 C.ar    1  UNL1        0.0011
     24 C          63.5328   91.2320   16.4386 C.ar    1  UNL1        0.0001
     25 C          63.2855   89.8507   15.9086 C.ar    1  UNL1        0.0015
     26 C          64.2605   89.2281   14.9538 C.ar    1  UNL1        0.0177
     27 C          65.4828   89.9868   14.5290 C.ar    1  UNL1        0.0026
     28 O          67.6333   93.0523   15.5983 O.co2   1  UNL1       -0.5446
     29 C          66.9525   92.1266   14.6343 C.2     1  UNL1        0.0729
     30 O          67.4939   91.9595   13.2455 O.co2   1  UNL1       -0.5446
@<TRIPOS>UNITY_ATOM_ATTR
28 1
charge -1
@<TRIPOS>BOND
     1    28    29   ar
     2    29    30   ar
     3    29    22    1
     4    22    23   ar
     5    23    24   ar
     6    24    25   ar
     7    25    26   ar
     8    26     1    1
     9     1     2   ar
    10     2     3   ar
    11     3     4   ar
    12     4     5   ar
    13     5     6   ar
    14     6     7    1
    15     7     8   ar
    16     8     9   ar
    17     9    10    1
    18     9    11   ar
    19    11    12   ar
    20    12    13   ar
    21    13    14    1
    22    14    15    1
    23    15    16    1
    24    16    17   ar
    25    17    18   ar
    26    18    19   ar
    27    19    20   ar
    28    20    21   ar
    29    26    27   ar
    30    27    22   ar
    31     6     1   ar
    32    13     7   ar
    33    21    16   ar
@<TRIPOS>MOLECULE
*****
 30 33 0 0 0
SMALL
GASTEIGER

@<TRIPOS>ATOM
      1 C          61.9640   85.7026   10.2683 C.ar    1  UNL1        0.0814
      2 N          61.1184   85.7447    9.0301 N.ar    1  UNL1       -0.2438
      3 C          60.4077   87.0098    8.6499 C.ar    1  UNL1        0.0988
      4 C          60.5427   88.2327    9.5079 C.ar    1  UNL1        0.0207
      5 C          61.3883   88.1906   10.7461 C.ar    1  UNL1        0.0032
      6 C          62.0990   86.9256   11.1263 C.ar    1  UNL1        0.0206
      7 C          62.9446   86.8834   12.3646 C.ar    1  UNL1        0.0363
      8 C          63.2525   85.5689   13.0182 C.ar    1  UNL1        0.0145
      9 C          64.0981   85.5268   14.2564 C.ar    1  UNL1        0.0579
     10 CL         64.4059   84.2123   14.9100 Cl      1  UNL1       -0.0822
     11 C          64.6358   86.7993   14.8409 C.ar    1  UNL1        0.0145
     12 C          64.3280   88.1138   14.1873 C.ar    1  UNL1        0.0378
     13 C          63.4824   88.1558   12.9491 C.ar    1  UNL1        0.1391
     14 O          63.1745   89.4704   12.2954 O.3     1  UNL1       -0.4706
     15 C          63.4930   90.7533   13.0044 C.3     1  UNL1        0.2320
     16 C          64.5649   91.6580   12.4729 C.ar    1  UNL1        0.0212
     17 C          64.5665   92.0486   11.0246 C.ar    1  UNL1       -0.0007
     18 C          65.6385   92.9533   10.4931 C.ar    1  UNL1       -0.0002
     19 C          66.7088   93.4672   11.4097 C.ar    1  UNL1       -0.0000
     20 C          66.7072   93.0765   12.8579 C.ar    1  UNL1       -0.0002
     21 C          65.6353   92.1719   13.3895 C.ar    1  UNL1       -0.0007
     22 C          62.8363   82.3030   12.1210 C.ar    1  UNL1        0.0140
     23 C          64.0960   81.9074   11.4091 C.ar    1  UNL1        0.0011
     24 C          64.6450   82.7768   10.3170 C.ar    1  UNL1        0.0001
     25 C          63.9344   84.0419    9.9368 C.ar    1  UNL1        0.0015
     26 C          62.6747   84.4375   10.6486 C.ar    1  UNL1        0.0177
     27 C          62.1257   83.5681   11.7407 C.ar    1  UNL1        0.0026
     28 O          61.7728   82.0537   14.4782 O.co2   1  UNL1       -0.5446
     29 C          62.2873   81.4336   13.2131 C.2     1  UNL1        0.0729
     30 O          62.2528   79.9441   13.0400 O.co2   1  UNL1       -0.5446
@<TRIPOS>UNITY_ATOM_ATTR
28 1
charge -1
@<TRIPOS>BOND
     1    28    29   ar
     2    29    30   ar
     3    29    22    1
     4    22    23   ar
     5    23    24   ar
     6    24    25   ar
     7    25    26   ar
     8    26     1    1
     9     1     2   ar
    10     2     3   ar
    11     3     4   ar
    12     4     5   ar
    13     5     6   ar
    14     6     7    1
    15     7     8   ar
    16     8     9   ar
    17     9    10    1
    18     9    11   ar
    19    11    12   ar
    20    12    13   ar
    21    13    14    1
    22    14    15    1
    23    15    16    1
    24    16    17   ar
    25    17    18   ar
    26    18    19   ar
    27    19    20   ar
    28    20    21   ar
    29    26    27   ar
    30    27    22   ar
    31     6     1   ar
    32    13     7   ar
    33    21    16   ar
@<TRIPOS>MOLECULE
*****
 30 33 0 0 0
SMALL
GASTEIGER

@<TRIPOS>ATOM
      1 C          63.6363   85.3245   13.0330 C.ar    1  UNL1        0.0814
      2 N          64.3739   85.4782   14.3300 N.ar    1  UNL1       -0.2438
      3 C          64.6249   86.8458   14.8927 C.ar    1  UNL1        0.0988
      4 C          64.1383   88.0598   14.1583 C.ar    1  UNL1        0.0207
      5 C          63.4006   87.9062   12.8612 C.ar    1  UNL1        0.0032
      6 C          63.1496   86.5386   12.2986 C.ar    1  UNL1        0.0206
      7 C          62.4120   86.3849   11.0015 C.ar    1  UNL1        0.0363
      8 C          63.0201   85.5931    9.8821 C.ar    1  UNL1        0.0145
      9 C          62.2825   85.4395    8.5852 C.ar    1  UNL1        0.0579
     10 CL         62.8906   84.6476    7.4656 Cl      1  UNL1       -0.0822
     11 C          60.9367   86.0777    8.4076 C.ar    1  UNL1        0.0145
     12 C          60.3285   86.8695    9.5270 C.ar    1  UNL1        0.0378
     13 C          61.0662   87.0231   10.8240 C.ar    1  UNL1        0.1391
     14 O          60.4580   87.8150   11.9435 O.3     1  UNL1       -0.4706
     15 C          60.3683   89.3089   11.8429 C.3     1  UNL1        0.2320
     16 C          61.5964   90.1154   11.5414 C.ar    1  UNL1        0.0212
     17 C          61.9787   90.3961   10.1184 C.ar    1  UNL1       -0.0007
     18 C          63.2070   91.2027    9.8169 C.ar    1  UNL1       -0.0002
     19 C          64.0529   91.7286   10.9384 C.ar    1  UNL1       -0.0000
     20 C          63.6706   91.4479   12.3614 C.ar    1  UNL1       -0.0002
     21 C          62.4424   90.6414   12.6630 C.ar    1  UNL1       -0.0007
     22 C          62.3594   81.5814   12.7039 C.ar    1  UNL1        0.0140
     23 C          62.8832   81.2216   11.3451 C.ar    1  UNL1        0.0011
     24 C          63.6580   82.2295   10.5490 C.ar    1  UNL1        0.0001
     25 C          63.9091   83.5971   11.1116 C.ar    1  UNL1        0.0015
     26 C          63.3852   83.9569   12.4704 C.ar    1  UNL1        0.0177
     27 C          62.6104   82.9490   13.2665 C.ar    1  UNL1        0.0026
     28 O          60.3814   81.0031   14.2860 O.co2   1  UNL1       -0.5446
     29 C          61.5845   80.5735   13.5000 C.2     1  UNL1        0.0729
     30 O          62.0128   79.1360   13.5100 O.co2   1  UNL1       -0.5446
@<TRIPOS>UNITY_ATOM_ATTR
28 1
charge -1
@<TRIPOS>BOND
     1    28    29   ar
     2    29    30   ar
     3    29    22    1
     4    22    23   ar
     5    23    24   ar
     6    24    25   ar
     7    25    26   ar
     8    26     1    1
     9     1     2   ar
    10     2     3   ar
    11     3     4   ar
    12     4     5   ar
    13     5     6   ar
    14     6     7    1
    15     7     8   ar
    16     8     9   ar
    17     9    10    1
    18     9    11   ar
    19    11    12   ar
    20    12    13   ar
    21    13    14    1
    22    14    15    1
    23    15    16    1
    24    16    17   ar
    25    17    18   ar
    26    18    19   ar
    27    19    20   ar
    28    20    21   ar
    29    26    27   ar
    30    27    22   ar
    31     6     1   ar
    32    13     7   ar
    33    21    16   ar
@<TRIPOS>MOLECULE
*****
 30 33 0 0 0
SMALL
GASTEIGER

@<TRIPOS>ATOM
      1 C          63.4528   90.7501   11.5929 C.ar    1  UNL1        0.0814
      2 N          63.7432   91.7233   10.4891 N.ar    1  UNL1       -0.2438
      3 C          64.9537   92.6059   10.5665 C.ar    1  UNL1        0.0988
      4 C          65.8737   92.5151   11.7478 C.ar    1  UNL1        0.0207
      5 C          65.5832   91.5418   12.8516 C.ar    1  UNL1        0.0032
      6 C          64.3728   90.6593   12.7741 C.ar    1  UNL1        0.0206
      7 C          64.0823   89.6860   13.8780 C.ar    1  UNL1        0.0363
      8 C          64.1498   88.2109   13.6143 C.ar    1  UNL1        0.0145
      9 C          63.8593   87.2377   14.7181 C.ar    1  UNL1        0.0579
     10 CL         63.9268   85.7625   14.4544 Cl      1  UNL1       -0.0822
     11 C          63.5014   87.7396   16.0856 C.ar    1  UNL1        0.0145
     12 C          63.4339   89.2146   16.3493 C.ar    1  UNL1        0.0378
     13 C          63.7244   90.1878   15.2455 C.ar    1  UNL1        0.1391
     14 O          63.6570   91.6630   15.5091 O.3     1  UNL1       -0.4706
     15 C          64.5980   92.2928   16.4929 C.3     1  UNL1        0.2320
     16 C          66.0132   92.5885   16.0934 C.ar    1  UNL1        0.0212
     17 C          67.1454   91.8446   16.7373 C.ar    1  UNL1       -0.0007
     18 C          68.5607   92.1403   16.3377 C.ar    1  UNL1       -0.0002
     19 C          68.8437   93.1800   15.2943 C.ar    1  UNL1       -0.0000
     20 C          67.7115   93.9239   14.6503 C.ar    1  UNL1       -0.0002
     21 C          66.2963   93.6282   15.0498 C.ar    1  UNL1       -0.0007
     22 C          61.1283   87.6347   10.7919 C.ar    1  UNL1        0.0140
     23 C          59.8215   88.1025   11.3606 C.ar    1  UNL1        0.0011
     24 C          59.7251   89.4527   12.0068 C.ar    1  UNL1        0.0001
     25 C          60.9355   90.3352   12.0842 C.ar    1  UNL1        0.0015
     26 C          62.2423   89.8675   11.5155 C.ar    1  UNL1        0.0177
     27 C          62.3387   88.5173   10.8693 C.ar    1  UNL1        0.0026
     28 O          60.4913   86.0113    8.8661 O.co2   1  UNL1       -0.5446
     29 C          61.2247   86.2845   10.1457 C.2     1  UNL1        0.0729
     30 O          62.0544   85.2074   10.7792 O.co2   1  UNL1       -0.5446
@<TRIPOS>UNITY_ATOM_ATTR
28 1
charge -1
@<TRIPOS>BOND
     1    28    29   ar
     2    29    30   ar
     3    29    22    1
     4    22    23   ar
     5    23    24   ar
     6    24    25   ar
     7    25    26   ar
     8    26     1    1
     9     1     2   ar
    10     2     3   ar
    11     3     4   ar
    12     4     5   ar
    13     5     6   ar
    14     6     7    1
    15     7     8   ar
    16     8     9   ar
    17     9    10    1
    18     9    11   ar
    19    11    12   ar
    20    12    13   ar
    21    13    14    1
    22    14    15    1
    23    15    16    1
    24    16    17   ar
    25    17    18   ar
    26    18    19   ar
    27    19    20   ar
    28    20    21   ar
    29    26    27   ar
    30    27    22   ar
    31     6     1   ar
    32    13     7   ar
    33    21    16   ar
@<TRIPOS>MOLECULE
*****
 30 33 0 0 0
SMALL
GASTEIGER

@<TRIPOS>ATOM
      1 C          66.8884   92.7849   13.6242 C.ar    1  UNL1        0.0814
      2 N          67.8073   93.5104   14.5618 N.ar    1  UNL1       -0.2438
      3 C          67.6112   93.3933   16.0444 C.ar    1  UNL1        0.0988
      4 C          66.4962   92.5508   16.5892 C.ar    1  UNL1        0.0207
      5 C          65.5772   91.8254   15.6515 C.ar    1  UNL1        0.0032
      6 C          65.7733   91.9424   14.1690 C.ar    1  UNL1        0.0206
      7 C          64.8543   91.2170   13.2313 C.ar    1  UNL1        0.0363
      8 C          64.4426   91.8579   11.9392 C.ar    1  UNL1        0.0145
      9 C          63.5237   91.1325   11.0015 C.ar    1  UNL1        0.0579
     10 CL         63.1119   91.7735    9.7093 Cl      1  UNL1       -0.0822
     11 C          63.0165   89.7660   11.3560 C.ar    1  UNL1        0.0145
     12 C          63.4283   89.1251   12.6481 C.ar    1  UNL1        0.0378
     13 C          64.3472   89.8505   13.5857 C.ar    1  UNL1        0.1391
     14 O          64.7590   89.2096   14.8779 O.3     1  UNL1       -0.4706
     15 C          63.7784   88.3746   15.6469 C.3     1  UNL1        0.2320
     16 C          63.8114   86.8797   15.5289 C.ar    1  UNL1        0.0212
     17 C          62.9030   86.0401   16.3774 C.ar    1  UNL1       -0.0007
     18 C          62.9361   84.5451   16.2593 C.ar    1  UNL1       -0.0002
     19 C          63.8776   83.8897   15.2929 C.ar    1  UNL1       -0.0000
     20 C          64.7860   84.7293   14.4444 C.ar    1  UNL1       -0.0002
     21 C          64.7530   86.2242   14.5624 C.ar    1  UNL1       -0.0007
     22 C          66.7407   94.2093    9.9229 C.ar    1  UNL1        0.0140
     23 C          67.4765   93.1362    9.1766 C.ar    1  UNL1        0.0011
     24 C          68.0163   91.9460    9.9129 C.ar    1  UNL1        0.0001
     25 C          67.8203   91.8289   11.3954 C.ar    1  UNL1        0.0015
     26 C          67.0844   92.9020   12.1416 C.ar    1  UNL1        0.0177
     27 C          66.5446   94.0922   11.4054 C.ar    1  UNL1        0.0026
     28 O          66.7000   95.7187    7.8086 O.co2   1  UNL1       -0.5446
     29 C          66.2009   95.3995    9.1866 C.2     1  UNL1        0.0729
     30 O          65.1619   96.2704    9.8284 O.co2   1  UNL1       -0.5446
@<TRIPOS>UNITY_ATOM_ATTR
28 1
charge -1
@<TRIPOS>BOND
     1    28    29   ar
     2    29    30   ar
     3    29    22    1
     4    22    23   ar
     5    23    24   ar
     6    24    25   ar
     7    25    26   ar
     8    26     1    1
     9     1     2   ar
    10     2     3   ar
    11     3     4   ar
    12     4     5   ar
    13     5     6   ar
    14     6     7    1
    15     7     8   ar
    16     8     9   ar
    17     9    10    1
    18     9    11   ar
    19    11    12   ar
    20    12    13   ar
    21    13    14    1
    22    14    15    1
    23    15    16    1
    24    16    17   ar
    25    17    18   ar
    26    18    19   ar
    27    19    20   ar
    28    20    21   ar
    29    26    27   ar
    30    27    22   ar
    31     6     1   ar
    32    13     7   ar
    33    21    16   ar
@<TRIPOS>MOLECULE
*****
 30 33 0 0 0
SMALL
GASTEIGER

@<TRIPOS>ATOM
      1 C          63.2429   87.2473   12.9106 C.ar    1  UNL1        0.0814
      2 N          63.8108   87.2029   14.2982 N.ar    1  UNL1       -0.2438
      3 C          63.8031   85.9173   15.0711 C.ar    1  UNL1        0.0988
      4 C          63.2275   84.6761   14.4562 C.ar    1  UNL1        0.0207
      5 C          62.6596   84.7205   13.0685 C.ar    1  UNL1        0.0032
      6 C          62.6673   86.0060   12.2957 C.ar    1  UNL1        0.0206
      7 C          62.0995   86.0504   10.9081 C.ar    1  UNL1        0.0363
      8 C          60.8337   86.8091   10.6396 C.ar    1  UNL1        0.0145
      9 C          60.2659   86.8535    9.2520 C.ar    1  UNL1        0.0579
     10 CL         59.0000   87.6122    8.9834 Cl      1  UNL1       -0.0822
     11 C          60.9638   86.1391    8.1328 C.ar    1  UNL1        0.0145
     12 C          62.2296   85.3804    8.4012 C.ar    1  UNL1        0.0378
     13 C          62.7974   85.3361    9.7889 C.ar    1  UNL1        0.1391
     14 O          64.0633   84.5773   10.0574 O.3     1  UNL1       -0.4706
     15 C          64.0773   83.0810    9.9529 C.3     1  UNL1        0.2320
     16 C          63.8538   82.2417   11.1758 C.ar    1  UNL1        0.0212
     17 C          64.7753   82.3702   12.3524 C.ar    1  UNL1       -0.0007
     18 C          64.5518   81.5308   13.5753 C.ar    1  UNL1       -0.0002
     19 C          63.4068   80.5630   13.6217 C.ar    1  UNL1       -0.0000
     20 C          62.4852   80.4345   12.4451 C.ar    1  UNL1       -0.0002
     21 C          62.7087   81.2738   11.2222 C.ar    1  UNL1       -0.0007
     22 C          64.0259   90.9993   11.8813 C.ar    1  UNL1        0.0140
     23 C          63.2660   91.1040   10.5923 C.ar    1  UNL1        0.0011
     24 C          62.4984   89.9232   10.0760 C.ar    1  UNL1        0.0001
     25 C          62.4907   88.6376   10.8488 C.ar    1  UNL1        0.0015
     26 C          63.2506   88.5329   12.1378 C.ar    1  UNL1        0.0177
     27 C          64.0182   89.7137   12.6540 C.ar    1  UNL1        0.0026
     28 O          65.0340   92.3326   13.8702 O.co2   1  UNL1       -0.5446
     29 C          64.7935   92.1801   12.3975 C.2     1  UNL1        0.0729
     30 O          65.3205   93.2084   11.4411 O.co2   1  UNL1       -0.5446
@<TRIPOS>UNITY_ATOM_ATTR
28 1
charge -1
@<TRIPOS>BOND
     1    28    29   ar
     2    29    30   ar
     3    29    22    1
     4    22    23   ar
     5    23    24   ar
     6    24    25   ar
     7    25    26   ar
     8    26     1    1
     9     1     2   ar
    10     2     3   ar
    11     3     4   ar
    12     4     5   ar
    13     5     6   ar
    14     6     7    1
    15     7     8   ar
    16     8     9   ar
    17     9    10    1
    18     9    11   ar
    19    11    12   ar
    20    12    13   ar
    21    13    14    1
    22    14    15    1
    23    15    16    1
    24    16    17   ar
    25    17    18   ar
    26    18    19   ar
    27    19    20   ar
    28    20    21   ar
    29    26    27   ar
    30    27    22   ar
    31     6     1   ar
    32    13     7   ar
    33    21    16   ar
@<TRIPOS>MOLECULE
*****
 30 33 0 0 0
SMALL
GASTEIGER

@<TRIPOS>ATOM
      1 C          62.5589   88.3342   11.6613 C.ar    1  UNL1        0.0814
      2 N          61.8059   87.8015   10.4784 N.ar    1  UNL1       -0.2438
      3 C          61.1393   88.7487    9.5251 C.ar    1  UNL1        0.0988
      4 C          61.2259   90.2285    9.7547 C.ar    1  UNL1        0.0207
      5 C          61.9789   90.7611   10.9377 C.ar    1  UNL1        0.0032
      6 C          62.6454   89.8140   11.8909 C.ar    1  UNL1        0.0206
      7 C          63.3984   90.3466   13.0739 C.ar    1  UNL1        0.0363
      8 C          62.9931   89.9487   14.4621 C.ar    1  UNL1        0.0145
      9 C          63.7462   90.4813   15.6450 C.ar    1  UNL1        0.0579
     10 CL         63.3409   90.0834   17.0333 Cl      1  UNL1       -0.0822
     11 C          64.9045   91.4119   15.4396 C.ar    1  UNL1        0.0145
     12 C          65.3099   91.8099   14.0513 C.ar    1  UNL1        0.0378
     13 C          64.5568   91.2772   12.8685 C.ar    1  UNL1        0.1391
     14 O          64.9621   91.6752   11.4801 O.3     1  UNL1       -0.4706
     15 C          66.3336   92.2282   11.2287 C.3     1  UNL1        0.2320
     16 C          66.4937   93.5612   10.5598 C.ar    1  UNL1        0.0212
     17 C          65.5599   94.6860   10.8958 C.ar    1  UNL1       -0.0007
     18 C          65.7201   96.0190   10.2269 C.ar    1  UNL1       -0.0002
     19 C          66.8140   96.2272    9.2220 C.ar    1  UNL1       -0.0000
     20 C          67.7478   95.1025    8.8859 C.ar    1  UNL1       -0.0002
     21 C          67.5877   93.7695    9.5548 C.ar    1  UNL1       -0.0007
     22 C          63.6488   84.9643   13.4518 C.ar    1  UNL1        0.0140
     23 C          64.5583   85.4928   14.5211 C.ar    1  UNL1        0.0011
     24 C          64.8014   86.9684   14.6371 C.ar    1  UNL1        0.0001
     25 C          64.1349   87.9155   13.6839 C.ar    1  UNL1        0.0015
     26 C          63.2254   87.3870   12.6146 C.ar    1  UNL1        0.0177
     27 C          62.9823   85.9114   12.4986 C.ar    1  UNL1        0.0026
     28 O          62.6792   82.7601   14.4273 O.co2   1  UNL1       -0.5446
     29 C          63.4057   83.4887   13.3358 C.2     1  UNL1        0.0729
     30 O          63.8892   82.7416   12.1283 O.co2   1  UNL1       -0.5446
@<TRIPOS>UNITY_ATOM_ATTR
28 1
charge -1
@<TRIPOS>BOND
     1    28    29   ar
     2    29    30   ar
     3    29    22    1
     4    22    23   ar
     5    23    24   ar
     6    24    25   ar
     7    25    26   ar
     8    26     1    1
     9     1     2   ar
    10     2     3   ar
    11     3     4   ar
    12     4     5   ar
    13     5     6   ar
    14     6     7    1
    15     7     8   ar
    16     8     9   ar
    17     9    10    1
    18     9    11   ar
    19    11    12   ar
    20    12    13   ar
    21    13    14    1
    22    14    15    1
    23    15    16    1
    24    16    17   ar
    25    17    18   ar
    26    18    19   ar
    27    19    20   ar
    28    20    21   ar
    29    26    27   ar
    30    27    22   ar
    31     6     1   ar
    32    13     7   ar
    33    21    16   ar
@<TRIPOS>MOLECULE
*****
 30 33 0 0 0
SMALL
GASTEIGER

@<TRIPOS>ATOM
      1 C          64.3047   91.2302   14.2388 C.ar    1  UNL1        0.0814
      2 N          64.7406   91.9755   15.4653 N.ar    1  UNL1       -0.2438
      3 C          64.2297   91.5638   16.8143 C.ar    1  UNL1        0.0988
      4 C          63.2829   90.4069   16.9366 C.ar    1  UNL1        0.0207
      5 C          62.8469   89.6616   15.7100 C.ar    1  UNL1        0.0032
      6 C          63.3578   90.0732   14.3611 C.ar    1  UNL1        0.0206
      7 C          62.9219   89.3279   13.1345 C.ar    1  UNL1        0.0363
      8 C          61.9872   89.9753   12.1561 C.ar    1  UNL1        0.0145
      9 C          61.5513   89.2300   10.9296 C.ar    1  UNL1        0.0579
     10 CL         60.6165   89.8774    9.9512 Cl      1  UNL1       -0.0822
     11 C          62.0501   87.8373   10.6814 C.ar    1  UNL1        0.0145
     12 C          62.9849   87.1900   11.6597 C.ar    1  UNL1        0.0378
     13 C          63.4207   87.9353   12.8862 C.ar    1  UNL1        0.1391
     14 O          64.3555   87.2879   13.8646 O.3     1  UNL1       -0.4706
     15 C          63.8371   86.2685   14.8353 C.3     1  UNL1        0.2320
     16 C          63.6007   84.8571   14.3858 C.ar    1  UNL1        0.0212
     17 C          62.5192   84.0376   15.0251 C.ar    1  UNL1       -0.0007
     18 C          62.2828   82.6261   14.5756 C.ar    1  UNL1       -0.0002
     19 C          63.1278   82.0343   13.4867 C.ar    1  UNL1       -0.0000
     20 C          64.2093   82.8539   12.8473 C.ar    1  UNL1       -0.0002
     21 C          64.4457   84.2653   13.2968 C.ar    1  UNL1       -0.0007
     22 C          66.8022   92.1836   11.3056 C.ar    1  UNL1        0.0140
     23 C          65.8375   92.4650   10.1921 C.ar    1  UNL1        0.0011
     24 C          64.3618   92.3349   10.4274 C.ar    1  UNL1        0.0001
     25 C          63.8508   91.9233   11.7763 C.ar    1  UNL1        0.0015
     26 C          64.8156   91.6418   12.8898 C.ar    1  UNL1        0.0177
     27 C          66.2913   91.7720   12.6545 C.ar    1  UNL1        0.0026
     28 O          68.7841   93.1108    9.9048 O.co2   1  UNL1       -0.5446
     29 C          68.2779   92.3138   11.0703 C.2     1  UNL1        0.0729
     30 O          69.2474   91.6469   12.0004 O.co2   1  UNL1       -0.5446
@<TRIPOS>UNITY_ATOM_ATTR
28 1
charge -1
@<TRIPOS>BOND
     1    28    29   ar
     2    29    30   ar
     3    29    22    1
     4    22    23   ar
     5    23    24   ar
     6    24    25   ar
     7    25    26   ar
     8    26     1    1
     9     1     2   ar
    10     2     3   ar
    11     3     4   ar
    12     4     5   ar
    13     5     6   ar
    14     6     7    1
    15     7     8   ar
    16     8     9   ar
    17     9    10    1
    18     9    11   ar
    19    11    12   ar
    20    12    13   ar
    21    13    14    1
    22    14    15    1
    23    15    16    1
    24    16    17   ar
    25    17    18   ar
    26    18    19   ar
    27    19    20   ar
    28    20    21   ar
    29    26    27   ar
    30    27    22   ar
    31     6     1   ar
    32    13     7   ar
    33    21    16   ar
@<TRIPOS>MOLECULE
*****
 30 33 0 0 0
SMALL
GASTEIGER

@<TRIPOS>ATOM
      1 C          63.9894   90.4721   12.6223 C.ar    1  UNL1        0.0814
      2 N          65.2125   91.3370   12.5452 N.ar    1  UNL1       -0.2438
      3 C          65.4522   92.1909   11.3354 C.ar    1  UNL1        0.0988
      4 C          64.4688   92.1798   10.2028 C.ar    1  UNL1        0.0207
      5 C          63.2457   91.3149   10.2800 C.ar    1  UNL1        0.0032
      6 C          63.0060   90.4611   11.4897 C.ar    1  UNL1        0.0206
      7 C          61.7828   89.5961   11.5669 C.ar    1  UNL1        0.0363
      8 C          60.6113   90.0264   12.3989 C.ar    1  UNL1        0.0145
      9 C          59.3882   89.1615   12.4760 C.ar    1  UNL1        0.0579
     10 CL         58.2166   89.5917   13.3081 Cl      1  UNL1       -0.0822
     11 C          59.3367   87.8663   11.7211 C.ar    1  UNL1        0.0145
     12 C          60.5083   87.4361   10.8891 C.ar    1  UNL1        0.0378
     13 C          61.7313   88.3010   10.8120 C.ar    1  UNL1        0.1391
     14 O          62.9029   87.8707    9.9799 O.3     1  UNL1       -0.4706
     15 C          62.8547   86.5716    9.2316 C.3     1  UNL1        0.2320
     16 C          63.0825   85.2790    9.9576 C.ar    1  UNL1        0.0212
     17 C          63.7492   84.1326    9.2567 C.ar    1  UNL1       -0.0007
     18 C          63.9770   82.8399    9.9828 C.ar    1  UNL1       -0.0002
     19 C          63.5381   82.6936   11.4097 C.ar    1  UNL1       -0.0000
     20 C          62.8714   83.8401   12.1105 C.ar    1  UNL1       -0.0002
     21 C          62.6436   85.1327   11.3845 C.ar    1  UNL1       -0.0007
     22 C          63.8490   87.3036   15.0079 C.ar    1  UNL1        0.0140
     23 C          63.2701   87.9105   16.2515 C.ar    1  UNL1        0.0011
     24 C          62.9310   89.3713   16.2854 C.ar    1  UNL1        0.0001
     25 C          63.1708   90.2252   15.0757 C.ar    1  UNL1        0.0015
     26 C          63.7496   89.6183   13.8321 C.ar    1  UNL1        0.0177
     27 C          64.0887   88.1575   13.7982 C.ar    1  UNL1        0.0026
     28 O          63.1799   84.8282   15.4255 O.co2   1  UNL1       -0.5446
     29 C          64.1881   85.8429   14.9740 C.2     1  UNL1        0.0729
     30 O          65.5354   85.3968   14.4886 O.co2   1  UNL1       -0.5446
@<TRIPOS>UNITY_ATOM_ATTR
28 1
charge -1
@<TRIPOS>BOND
     1    28    29   ar
     2    29    30   ar
     3    29    22    1
     4    22    23   ar
     5    23    24   ar
     6    24    25   ar
     7    25    26   ar
     8    26     1    1
     9     1     2   ar
    10     2     3   ar
    11     3     4   ar
    12     4     5   ar
    13     5     6   ar
    14     6     7    1
    15     7     8   ar
    16     8     9   ar
    17     9    10    1
    18     9    11   ar
    19    11    12   ar
    20    12    13   ar
    21    13    14    1
    22    14    15    1
    23    15    16    1
    24    16    17   ar
    25    17    18   ar
    26    18    19   ar
    27    19    20   ar
    28    20    21   ar
    29    26    27   ar
    30    27    22   ar
    31     6     1   ar
    32    13     7   ar
    33    21    16   ar
