@<TRIPOS>MOLECULE
*****
 36 40 0 0 0
SMALL
GASTEIGER

@<TRIPOS>ATOM
      1 C          64.1618   91.3591   13.0880 C.3     1  UNL1        0.1909
      2 C          63.9174   91.3857   11.6083 C.3     1  UNL1        0.1783
      3 O          64.7690   92.4699   11.0172 O.3     1  UNL1       -0.3267
      4 C          65.5396   93.1134   12.1316 C.3     1  UNL1        0.2296
      5 O          65.1644   92.4269   13.4115 O.3     1  UNL1       -0.3255
      6 C          66.1005   93.9719   11.0370 C.ar    1  UNL1        0.0409
      7 C          65.5862   95.3673   10.8402 C.ar    1  UNL1        0.0022
      8 C          66.1471   96.2258    9.7455 C.ar    1  UNL1        0.0113
      9 C          67.2222   95.6891    8.8477 C.ar    1  UNL1        0.0585
     10 CL         67.7830   96.5476    7.7530 Cl      1  UNL1       -0.0822
     11 C          67.7364   94.2937    9.0445 C.ar    1  UNL1        0.0226
     12 C          67.1756   93.4352   10.1391 C.ar    1  UNL1        0.0591
     13 CL         67.6897   92.0399   10.3360 Cl      1  UNL1       -0.0824
     14 C          63.5168   90.4282   14.0716 C.3     1  UNL1        0.2374
     15 O          64.2985   89.2834   14.6445 O.3     1  UNL1       -0.4727
     16 C          63.6594   85.1141   13.0766 C.ar    1  UNL1        0.0481
     17 C          63.1491   86.2930   12.3022 C.ar    1  UNL1        0.0176
     18 C          63.3621   87.6828   12.8248 C.ar    1  UNL1        0.0382
     19 C          64.0855   87.8936   14.1218 C.ar    1  UNL1        0.1388
     20 C          64.5958   86.7147   14.8962 C.ar    1  UNL1        0.0382
     21 C          64.3828   85.3249   14.3736 C.ar    1  UNL1        0.0176
     22 C          62.9721   79.2706    9.5225 C.3     1  UNL1        0.0948
     23 C          62.8072   79.5550   10.9860 C.2     1  UNL1        0.2262
     24 O          62.4294   78.4496   11.9269 O.2     1  UNL1       -0.2749
     25 N          63.0203   80.9448   11.5086 N.am    1  UNL1       -0.2760
     26 C          63.3982   82.0501   10.5678 C.3     1  UNL1        0.1148
     27 C          63.6112   83.4399   11.0904 C.3     1  UNL1        0.1123
     28 N          63.4464   83.7243   12.5539 N.pl3   1  UNL1       -0.3041
     29 C          63.0685   82.6189   13.4948 C.3     1  UNL1        0.1123
     30 C          62.8554   81.2291   12.9721 C.3     1  UNL1        0.1148
     31 C          66.4275   93.9364   13.0173 C.3     1  UNL1        0.1682
     32 N          67.2805   93.2675   14.0542 N.ar    1  UNL1       -0.3025
     33 C          67.6008   93.8093   15.4156 C.ar    1  UNL1        0.0982
     34 C          68.4812   92.8160   16.1144 C.ar    1  UNL1        0.1193
     35 N          68.7049   91.6603   15.1848 N.ar    1  UNL1       -0.2223
     36 C          67.9628   91.9393   13.9115 C.ar    1  UNL1        0.1788
@<TRIPOS>BOND
     1    22    23    1
     2    23    24    2
     3    23    25   am
     4    25    26    1
     5    26    27    1
     6    27    28    1
     7    28    16    1
     8    16    17   ar
     9    17    18   ar
    10    18    19   ar
    11    19    15    1
    12    15    14    1
    13     1    14    1
    14     1     2    1
    15     2     3    1
    16     3     4    1
    17     4    31    1
    18    31    32    1
    19    32    33   ar
    20    33    34   ar
    21    34    35   ar
    22    35    36   ar
    23     4     6    1
    24     6     7   ar
    25     7     8   ar
    26     8     9   ar
    27     9    10    1
    28     9    11   ar
    29    11    12   ar
    30    12    13    1
    31     4     5    1
    32    19    20   ar
    33    20    21   ar
    34    28    29    1
    35    29    30    1
    36    30    25    1
    37    21    16   ar
    38     5     1    1
    39    36    32   ar
    40    12     6   ar
@<TRIPOS>MOLECULE
*****
 36 40 0 0 0
SMALL
GASTEIGER

@<TRIPOS>ATOM
      1 C          59.4895   88.0550    7.5341 C.3     1  UNL1        0.1909
      2 C          59.2198   86.5853    7.6643 C.3     1  UNL1        0.1783
      3 O          60.2638   86.0006    8.5689 O.3     1  UNL1       -0.3267
      4 C          61.1788   87.1091    8.9978 C.3     1  UNL1        0.2296
      5 O          60.7004   88.3788    8.3583 O.3     1  UNL1       -0.3255
      6 C          61.8792   86.0237    9.7602 C.ar    1  UNL1        0.0409
      7 C          61.6381   85.8658   11.2323 C.ar    1  UNL1        0.0022
      8 C          62.3385   84.7804   11.9948 C.ar    1  UNL1        0.0113
      9 C          63.2799   83.8530   11.2853 C.ar    1  UNL1        0.0585
     10 CL         63.9803   82.7675   12.0478 Cl      1  UNL1       -0.0822
     11 C          63.5210   84.0109    9.8131 C.ar    1  UNL1        0.0226
     12 C          62.8206   85.0962    9.0507 C.ar    1  UNL1        0.0591
     13 CL         63.0616   85.2541    7.5786 Cl      1  UNL1       -0.0824
     14 C          58.6891   89.0299    6.7224 C.3     1  UNL1        0.2374
     15 O          59.0825   90.4769    6.6863 O.3     1  UNL1       -0.4727
     16 C          60.9839   92.2001    2.9896 C.ar    1  UNL1        0.0481
     17 C          61.7592   91.2581    3.8623 C.ar    1  UNL1        0.0176
     18 C          61.1254   90.6837    5.0945 C.ar    1  UNL1        0.0382
     19 C          59.7163   91.0513    5.4541 C.ar    1  UNL1        0.1388
     20 C          58.9411   91.9933    4.5814 C.ar    1  UNL1        0.0382
     21 C          59.5749   92.5677    3.3492 C.ar    1  UNL1        0.0176
     22 C          62.9021   94.2519   -3.2842 C.3     1  UNL1        0.0948
     23 C          63.5191   94.4977   -1.9392 C.2     1  UNL1        0.2262
     24 O          64.7699   95.3179   -1.8265 O.2     1  UNL1       -0.2749
     25 N          62.8853   93.9233   -0.7070 N.am    1  UNL1       -0.2760
     26 C          61.6345   93.1031   -0.8197 C.3     1  UNL1        0.1148
     27 C          61.0007   92.5287    0.4125 C.3     1  UNL1        0.1123
     28 N          61.6177   92.7745    1.7574 N.pl3   1  UNL1       -0.3041
     29 C          62.8685   93.5947    1.8701 C.3     1  UNL1        0.1123
     30 C          63.5023   94.1691    0.6379 C.3     1  UNL1        0.1148
     31 C          62.2403   87.9908    9.5861 C.3     1  UNL1        0.1682
     32 N          61.9628   88.7633   10.8415 N.ar    1  UNL1       -0.3025
     33 C          62.9922   89.3261   11.7761 C.ar    1  UNL1        0.0982
     34 C          62.2728   90.0193   12.8950 C.ar    1  UNL1        0.1193
     35 N          60.7987   89.8849   12.6519 N.ar    1  UNL1       -0.2223
     36 C          60.6072   89.1086   11.3828 C.ar    1  UNL1        0.1788
@<TRIPOS>BOND
     1    22    23    1
     2    23    24    2
     3    23    25   am
     4    25    26    1
     5    26    27    1
     6    27    28    1
     7    28    16    1
     8    16    17   ar
     9    17    18   ar
    10    18    19   ar
    11    19    15    1
    12    15    14    1
    13     1    14    1
    14     1     2    1
    15     2     3    1
    16     3     4    1
    17     4    31    1
    18    31    32    1
    19    32    33   ar
    20    33    34   ar
    21    34    35   ar
    22    35    36   ar
    23     4     6    1
    24     6     7   ar
    25     7     8   ar
    26     8     9   ar
    27     9    10    1
    28     9    11   ar
    29    11    12   ar
    30    12    13    1
    31     4     5    1
    32    19    20   ar
    33    20    21   ar
    34    28    29    1
    35    29    30    1
    36    30    25    1
    37    21    16   ar
    38     5     1    1
    39    36    32   ar
    40    12     6   ar
@<TRIPOS>MOLECULE
*****
 36 40 0 0 0
SMALL
GASTEIGER

@<TRIPOS>ATOM
      1 C          63.3024   86.8607   16.2081 C.3     1  UNL1        0.1909
      2 C          62.7906   85.6550   16.9391 C.3     1  UNL1        0.1783
      3 O          62.7703   84.5039   15.9775 O.3     1  UNL1       -0.3267
      4 C          63.2695   84.9982   14.6522 C.3     1  UNL1        0.2296
      5 O          63.5984   86.4548   14.7947 O.3     1  UNL1       -0.3255
      6 C          63.0347   83.5832   14.2135 C.ar    1  UNL1        0.0409
      7 C          61.7571   82.8870   14.5785 C.ar    1  UNL1        0.0022
      8 C          61.5223   81.4720   14.1397 C.ar    1  UNL1        0.0113
      9 C          62.5651   80.7531   13.3361 C.ar    1  UNL1        0.0585
     10 CL         62.3303   79.3380   12.8973 Cl      1  UNL1       -0.0822
     11 C          63.8427   81.4493   12.9711 C.ar    1  UNL1        0.0226
     12 C          64.0775   82.8643   13.4098 C.ar    1  UNL1        0.0591
     13 CL         65.3550   83.5605   13.0449 Cl      1  UNL1       -0.0824
     14 C          63.4860   88.2316   16.7886 C.3     1  UNL1        0.2374
     15 O          62.7637   89.4022   16.1904 O.3     1  UNL1       -0.4727
     16 C          64.8086   91.9771   13.1182 C.ar    1  UNL1        0.0481
     17 C          63.7013   91.0532   12.7054 C.ar    1  UNL1        0.0176
     18 C          63.0197   90.1950   13.7295 C.ar    1  UNL1        0.0382
     19 C          63.4454   90.2605   15.1663 C.ar    1  UNL1        0.1388
     20 C          64.5527   91.1843   15.5790 C.ar    1  UNL1        0.0382
     21 C          65.2343   92.0426   14.5550 C.ar    1  UNL1        0.0176
     22 C          67.8080   96.8554    9.3161 C.3     1  UNL1        0.0948
     23 C          67.5352   95.4102    9.0218 C.2     1  UNL1        0.2262
     24 O          67.9440   94.8231    7.7035 O.2     1  UNL1       -0.2749
     25 N          66.8535   94.5519   10.0459 N.am    1  UNL1       -0.2760
     26 C          66.4447   95.1389   11.3643 C.3     1  UNL1        0.1148
     27 C          65.7631   94.2806   12.3884 C.3     1  UNL1        0.1123
     28 N          65.4903   92.8353   12.0941 N.pl3   1  UNL1       -0.3041
     29 C          65.8991   92.2483   10.7757 C.3     1  UNL1        0.1123
     30 C          66.5808   93.1066    9.7516 C.3     1  UNL1        0.1148
     31 C          63.7197   85.1968   13.2351 C.3     1  UNL1        0.1682
     32 N          62.8081   85.8577   12.2441 N.ar    1  UNL1       -0.3025
     33 C          62.7677   87.3225   11.9237 C.ar    1  UNL1        0.0982
     34 C          61.7115   87.5399   10.8811 C.ar    1  UNL1        0.1193
     35 N          61.0990   86.2095   10.5572 N.ar    1  UNL1       -0.2223
     36 C          61.7767   85.1698   11.3996 C.ar    1  UNL1        0.1788
@<TRIPOS>BOND
     1    22    23    1
     2    23    24    2
     3    23    25   am
     4    25    26    1
     5    26    27    1
     6    27    28    1
     7    28    16    1
     8    16    17   ar
     9    17    18   ar
    10    18    19   ar
    11    19    15    1
    12    15    14    1
    13     1    14    1
    14     1     2    1
    15     2     3    1
    16     3     4    1
    17     4    31    1
    18    31    32    1
    19    32    33   ar
    20    33    34   ar
    21    34    35   ar
    22    35    36   ar
    23     4     6    1
    24     6     7   ar
    25     7     8   ar
    26     8     9   ar
    27     9    10    1
    28     9    11   ar
    29    11    12   ar
    30    12    13    1
    31     4     5    1
    32    19    20   ar
    33    20    21   ar
    34    28    29    1
    35    29    30    1
    36    30    25    1
    37    21    16   ar
    38     5     1    1
    39    36    32   ar
    40    12     6   ar
@<TRIPOS>MOLECULE
*****
 36 40 0 0 0
SMALL
GASTEIGER

@<TRIPOS>ATOM
      1 C          60.1781   88.3275    8.7858 C.3     1  UNL1        0.1909
      2 C          60.0933   86.9270    8.2555 C.3     1  UNL1        0.1783
      3 O          60.9781   86.0576    9.0989 O.3     1  UNL1       -0.3267
      4 C          61.6097   86.9208   10.1506 C.3     1  UNL1        0.2296
      5 O          61.1152   88.3238    9.9571 O.3     1  UNL1       -0.3255
      6 C          62.2647   85.6426   10.5828 C.ar    1  UNL1        0.0409
      7 C          62.0736   85.1379   11.9824 C.ar    1  UNL1        0.0022
      8 C          62.7287   83.8596   12.4146 C.ar    1  UNL1        0.0113
      9 C          63.5749   83.0860   11.4474 C.ar    1  UNL1        0.0585
     10 CL         64.2300   81.8077   11.8796 Cl      1  UNL1       -0.0822
     11 C          63.7660   83.5908   10.0477 C.ar    1  UNL1        0.0226
     12 C          63.1109   84.8690    9.6155 C.ar    1  UNL1        0.0591
     13 CL         63.3020   85.3738    8.2160 Cl      1  UNL1       -0.0824
     14 C          59.4530   89.5221    8.2407 C.3     1  UNL1        0.2374
     15 O          58.8057   89.4542    6.8893 O.3     1  UNL1       -0.4727
     16 C          60.1713   92.2043    3.5996 C.ar    1  UNL1        0.0481
     17 C          58.7299   92.1889    4.0142 C.ar    1  UNL1        0.0176
     18 C          58.2747   91.2722    5.1108 C.ar    1  UNL1        0.0382
     19 C          59.2609   90.3709    5.7927 C.ar    1  UNL1        0.1388
     20 C          60.7023   90.3864    5.3781 C.ar    1  UNL1        0.0382
     21 C          61.1575   91.3031    4.2815 C.ar    1  UNL1        0.0176
     22 C          63.4568   96.1126   -1.0028 C.3     1  UNL1        0.0948
     23 C          61.9922   95.8711   -0.7867 C.2     1  UNL1        0.2262
     24 O          60.9829   96.5464   -1.6671 O.2     1  UNL1       -0.2749
     25 N          61.5370   94.9544    0.3099 N.am    1  UNL1       -0.2760
     26 C          62.5463   94.2792    1.1904 C.3     1  UNL1        0.1148
     27 C          62.0911   93.3625    2.2869 C.3     1  UNL1        0.1123
     28 N          60.6265   93.1210    2.5030 N.pl3   1  UNL1       -0.3041
     29 C          59.6172   93.7963    1.6226 C.3     1  UNL1        0.1123
     30 C          60.0724   94.7130    0.5260 C.3     1  UNL1        0.1148
     31 C          62.3782   87.5170   11.2926 C.3     1  UNL1        0.1682
     32 N          62.7157   88.9785   11.2878 N.ar    1  UNL1       -0.3025
     33 C          62.9645   89.8219   10.0727 C.ar    1  UNL1        0.0982
     34 C          63.2662   91.2178   10.5312 C.ar    1  UNL1        0.1193
     35 N          63.2038   91.2371   12.0298 N.ar    1  UNL1       -0.2223
     36 C          62.8636   89.8531   12.4974 C.ar    1  UNL1        0.1788
@<TRIPOS>BOND
     1    22    23    1
     2    23    24    2
     3    23    25   am
     4    25    26    1
     5    26    27    1
     6    27    28    1
     7    28    16    1
     8    16    17   ar
     9    17    18   ar
    10    18    19   ar
    11    19    15    1
    12    15    14    1
    13     1    14    1
    14     1     2    1
    15     2     3    1
    16     3     4    1
    17     4    31    1
    18    31    32    1
    19    32    33   ar
    20    33    34   ar
    21    34    35   ar
    22    35    36   ar
    23     4     6    1
    24     6     7   ar
    25     7     8   ar
    26     8     9   ar
    27     9    10    1
    28     9    11   ar
    29    11    12   ar
    30    12    13    1
    31     4     5    1
    32    19    20   ar
    33    20    21   ar
    34    28    29    1
    35    29    30    1
    36    30    25    1
    37    21    16   ar
    38     5     1    1
    39    36    32   ar
    40    12     6   ar
@<TRIPOS>MOLECULE
*****
 36 40 0 0 0
SMALL
GASTEIGER

@<TRIPOS>ATOM
      1 C          59.6584   91.7938    4.5348 C.3     1  UNL1        0.1909
      2 C          61.0766   91.3577    4.3146 C.3     1  UNL1        0.1783
      3 O          61.6594   92.2082    3.2251 O.3     1  UNL1       -0.3267
      4 C          60.6013   93.1701    2.7720 C.3     1  UNL1        0.2296
      5 O          59.3646   92.9140    3.5814 O.3     1  UNL1       -0.3255
      6 C          61.6631   93.6482    1.8266 C.ar    1  UNL1        0.0409
      7 C          62.3239   94.9761    2.0503 C.ar    1  UNL1        0.0022
      8 C          63.3858   95.4542    1.1049 C.ar    1  UNL1        0.0113
      9 C          63.7869   94.6044   -0.0643 C.ar    1  UNL1        0.0585
     10 CL         64.8487   95.0825   -1.0098 Cl      1  UNL1       -0.0822
     11 C          63.1261   93.2765   -0.2881 C.ar    1  UNL1        0.0226
     12 C          62.0643   92.7984    0.6573 C.ar    1  UNL1        0.0591
     13 CL         61.4035   91.4705    0.4336 Cl      1  UNL1       -0.0824
     14 C          58.7019   91.2120    5.5331 C.3     1  UNL1        0.2374
     15 O          58.6384   89.7268    5.7336 O.3     1  UNL1       -0.4727
     16 C          60.8452   87.8229    9.1622 C.ar    1  UNL1        0.0481
     17 C          60.1210   86.9649    8.1675 C.ar    1  UNL1        0.0176
     18 C          59.3854   87.5996    7.0246 C.ar    1  UNL1        0.0382
     19 C          59.3740   89.0922    6.8764 C.ar    1  UNL1        0.1388
     20 C          60.0982   89.9501    7.8711 C.ar    1  UNL1        0.0382
     21 C          60.8338   89.3154    9.0140 C.ar    1  UNL1        0.0176
     22 C          64.5152   86.1420   14.7259 C.3     1  UNL1        0.0948
     23 C          63.7876   85.2842   13.7336 C.2     1  UNL1        0.2262
     24 O          63.7955   83.7919   13.8841 O.2     1  UNL1       -0.2749
     25 N          63.0520   85.9189   12.5907 N.am    1  UNL1       -0.2760
     26 C          63.0440   87.4113   12.4402 C.3     1  UNL1        0.1148
     27 C          62.3085   88.0459   11.2974 C.3     1  UNL1        0.1123
     28 N          61.5808   87.1882   10.3050 N.pl3   1  UNL1       -0.3041
     29 C          61.5888   85.6958   10.4555 C.3     1  UNL1        0.1123
     30 C          62.3244   85.0612   11.5984 C.3     1  UNL1        0.1148
     31 C          59.7651   94.2319    2.1212 C.3     1  UNL1        0.1682
     32 N          59.1699   93.9919    0.7654 N.ar    1  UNL1       -0.3025
     33 C          58.3873   92.7825    0.3477 C.ar    1  UNL1        0.0982
     34 C          57.9865   92.9623   -1.0865 C.ar    1  UNL1        0.1193
     35 N          58.5215   94.2830   -1.5552 N.ar    1  UNL1       -0.2223
     36 C          59.2529   94.9193   -0.4106 C.ar    1  UNL1        0.1788
@<TRIPOS>BOND
     1    22    23    1
     2    23    24    2
     3    23    25   am
     4    25    26    1
     5    26    27    1
     6    27    28    1
     7    28    16    1
     8    16    17   ar
     9    17    18   ar
    10    18    19   ar
    11    19    15    1
    12    15    14    1
    13     1    14    1
    14     1     2    1
    15     2     3    1
    16     3     4    1
    17     4    31    1
    18    31    32    1
    19    32    33   ar
    20    33    34   ar
    21    34    35   ar
    22    35    36   ar
    23     4     6    1
    24     6     7   ar
    25     7     8   ar
    26     8     9   ar
    27     9    10    1
    28     9    11   ar
    29    11    12   ar
    30    12    13    1
    31     4     5    1
    32    19    20   ar
    33    20    21   ar
    34    28    29    1
    35    29    30    1
    36    30    25    1
    37    21    16   ar
    38     5     1    1
    39    36    32   ar
    40    12     6   ar
@<TRIPOS>MOLECULE
*****
 36 40 0 0 0
SMALL
GASTEIGER

@<TRIPOS>ATOM
      1 C          60.8381   87.6836    9.7941 C.3     1  UNL1        0.1909
      2 C          60.5688   87.2925   11.2170 C.3     1  UNL1        0.1783
      3 O          61.3614   86.0544   11.5153 O.3     1  UNL1       -0.3267
      4 C          62.1205   85.6803   10.2768 C.3     1  UNL1        0.2296
      5 O          61.7971   86.6872    9.2130 O.3     1  UNL1       -0.3255
      6 C          62.6246   84.5457   11.1184 C.ar    1  UNL1        0.0409
      7 C          62.4555   83.1310   10.6491 C.ar    1  UNL1        0.0022
      8 C          62.9596   81.9963   11.4908 C.ar    1  UNL1        0.0113
      9 C          63.6328   82.2763   12.8017 C.ar    1  UNL1        0.0585
     10 CL         64.1370   81.1416   13.6433 Cl      1  UNL1       -0.0822
     11 C          63.8019   83.6910   13.2710 C.ar    1  UNL1        0.0226
     12 C          63.2978   84.8256   12.4294 C.ar    1  UNL1        0.0591
     13 CL         63.4668   86.2403   12.8986 Cl      1  UNL1       -0.0824
     14 C          60.2514   88.8639    9.0780 C.3     1  UNL1        0.2374
     15 O          60.3350   90.2304    9.6907 O.3     1  UNL1       -0.4727
     16 C          63.8824   91.3470   12.2243 C.ar    1  UNL1        0.0481
     17 C          62.6771   90.7173   12.8573 C.ar    1  UNL1        0.0176
     18 C          61.4947   90.3451   12.0128 C.ar    1  UNL1        0.0382
     19 C          61.5175   90.6026   10.5353 C.ar    1  UNL1        0.1388
     20 C          62.7228   91.2323    9.9023 C.ar    1  UNL1        0.0382
     21 C          63.9053   91.6044   10.7468 C.ar    1  UNL1        0.0176
     22 C          69.0354   91.9466   16.7341 C.3     1  UNL1        0.0948
     23 C          68.6123   92.8357   15.6025 C.2     1  UNL1        0.2262
     24 O          69.3717   94.0969   15.3155 O.2     1  UNL1       -0.2749
     25 N          67.4298   92.4635   14.7580 N.am    1  UNL1       -0.2760
     26 C          66.6704   91.2022   15.0450 C.3     1  UNL1        0.1148
     27 C          65.4880   90.8300   14.2004 C.3     1  UNL1        0.1123
     28 N          65.0649   91.7191   13.0689 N.pl3   1  UNL1       -0.3041
     29 C          65.8243   92.9804   12.7819 C.3     1  UNL1        0.1123
     30 C          67.0068   93.3526   13.6264 C.3     1  UNL1        0.1148
     31 C          62.9849   85.0691    9.2142 C.3     1  UNL1        0.1682
     32 N          62.4339   84.8419    7.8377 N.ar    1  UNL1       -0.3025
     33 C          63.2346   84.5352    6.6070 C.ar    1  UNL1        0.0982
     34 C          62.2809   84.3853    5.4590 C.ar    1  UNL1        0.1193
     35 N          60.8907   84.5994    5.9802 N.ar    1  UNL1       -0.2223
     36 C          60.9853   84.8816    7.4504 C.ar    1  UNL1        0.1788
@<TRIPOS>BOND
     1    22    23    1
     2    23    24    2
     3    23    25   am
     4    25    26    1
     5    26    27    1
     6    27    28    1
     7    28    16    1
     8    16    17   ar
     9    17    18   ar
    10    18    19   ar
    11    19    15    1
    12    15    14    1
    13     1    14    1
    14     1     2    1
    15     2     3    1
    16     3     4    1
    17     4    31    1
    18    31    32    1
    19    32    33   ar
    20    33    34   ar
    21    34    35   ar
    22    35    36   ar
    23     4     6    1
    24     6     7   ar
    25     7     8   ar
    26     8     9   ar
    27     9    10    1
    28     9    11   ar
    29    11    12   ar
    30    12    13    1
    31     4     5    1
    32    19    20   ar
    33    20    21   ar
    34    28    29    1
    35    29    30    1
    36    30    25    1
    37    21    16   ar
    38     5     1    1
    39    36    32   ar
    40    12     6   ar
