@<TRIPOS>MOLECULE
*****
 37 41 0 0 0
SMALL
GASTEIGER

@<TRIPOS>ATOM
      1 C          63.1295   93.7419   -0.0509 C.3     1  UNL1        0.0612
      2 C          62.4999   93.4166   -1.3730 C.3     1  UNL1        0.0375
      3 C          62.9651   94.1136   -2.6170 C.3     1  UNL1        0.0949
      4 N          64.0599   95.1360   -2.5391 N.am    1  UNL1       -0.2773
      5 C          64.5251   95.8330   -3.7831 C.2     1  UNL1        0.2553
      6 O          65.6199   96.8555   -3.7052 O.2     1  UNL1       -0.2720
      7 C          64.6895   95.4614   -1.2171 C.3     1  UNL1        0.0949
      8 C          64.2243   94.7643    0.0270 C.3     1  UNL1        0.0375
      9 C          58.8200   91.6414    4.3950 C.ar    1  UNL1        0.0682
     10 C          59.8117   90.9490    5.2822 C.ar    1  UNL1        0.0099
     11 C          61.2686   90.9537    4.9253 C.ar    1  UNL1       -0.0038
     12 C          61.7339   91.6508    3.6813 C.ar    1  UNL1       -0.0234
     13 C          60.7421   92.3431    2.7941 C.ar    1  UNL1       -0.0094
     14 C          59.2852   92.3384    3.1509 C.ar    1  UNL1        0.0070
     15 C          61.2073   93.0402    1.5500 C.3     1  UNL1        0.0988
     16 N          62.6643   93.0449    1.1931 N.3     1  UNL1       -0.2699
     17 C          63.6560   92.3525    2.0804 C.3     1  UNL1        0.0770
     18 C          63.1908   91.6555    3.3244 C.3     1  UNL1        0.0434
     19 N          55.9061   91.6319    5.1087 N.1     1  UNL1       -0.1908
     20 C          57.3631   91.6367    4.7518 C.1     1  UNL1        0.1004
     21 C          63.8955   95.5077   -5.1052 C.3     1  UNL1        0.2042
     22 F          65.1114   94.6319   -5.1731 F       1  UNL1       -0.2306
     23 C          62.8983   96.4964   -4.5781 C.3     1  UNL1        0.0590
     24 C          61.6938   96.8557   -5.3967 C.3     1  UNL1        0.0756
     25 N          61.4865   96.2261   -6.7423 N.3     1  UNL1       -0.2688
     26 C          62.4837   95.2374   -7.2694 C.3     1  UNL1        0.0756
     27 C          63.6883   94.8781   -6.4508 C.3     1  UNL1        0.0590
     28 C          60.2819   96.5854   -7.5609 C.3     1  UNL1        0.0993
     29 C          58.9411   96.0088   -7.2151 C.ar    1  UNL1       -0.0018
     30 C          57.6945   96.8025   -7.4724 C.ar    1  UNL1        0.0179
     31 C          56.3535   96.2261   -7.1267 C.ar    1  UNL1        0.1000
     32 N          56.2591   94.8559   -6.5237 N.ar    1  UNL1       -0.2296
     33 C          57.5057   94.0622   -6.2663 C.ar    1  UNL1        0.1251
     34 N          57.4112   92.6920   -5.6633 N.pl3   1  UNL1       -0.3426
     35 C          58.8466   94.6387   -6.6121 C.ar    1  UNL1        0.0310
     36 H          56.5311   92.3137   -5.4364 H       1  UNL1        0.1437
     37 H          58.2294   92.1710   -5.4944 H       1  UNL1        0.1437
@<TRIPOS>BOND
     1    19    20    3
     2    20     9    1
     3     9    10   ar
     4    10    11   ar
     5    11    12   ar
     6    12    13   ar
     7    13    14   ar
     8    13    15    1
     9    15    16    1
    10    16     1    1
    11     1     2    1
    12     2     3    1
    13     3     4    1
    14     4     5   am
    15     5     6    2
    16     5    21    1
    17    21    22    1
    18    21    23    1
    19    23    24    1
    20    24    25    1
    21    25    28    1
    22    28    29    1
    23    29    30   ar
    24    30    31   ar
    25    31    32   ar
    26    32    33   ar
    27    33    34    1
    28    33    35   ar
    29    25    26    1
    30    26    27    1
    31     4     7    1
    32     7     8    1
    33    16    17    1
    34    17    18    1
    35    14     9   ar
    36     8     1    1
    37    18    12    1
    38    27    21    1
    39    35    29   ar
    40    34    36    1
    41    34    37    1
@<TRIPOS>MOLECULE
*****
 37 41 0 0 0
SMALL
GASTEIGER

@<TRIPOS>ATOM
      1 C          61.1354   93.9170   -1.2473 C.3     1  UNL1        0.0612
      2 C          61.4556   92.6513   -0.5088 C.3     1  UNL1        0.0375
      3 C          61.1359   92.5338    0.9519 C.3     1  UNL1        0.0949
      4 N          60.4958   93.6820    1.6743 N.am    1  UNL1       -0.2773
      5 C          60.1760   93.5646    3.1350 C.2     1  UNL1        0.2553
      6 O          59.5359   94.7128    3.8574 O.2     1  UNL1       -0.2720
      7 C          60.1755   94.9478    0.9359 C.3     1  UNL1        0.0949
      8 C          60.4953   95.0653   -0.5250 C.3     1  UNL1        0.0375
      9 C          64.9325   94.0157   -6.5692 C.ar    1  UNL1        0.0682
     10 C          63.8334   94.2601   -7.5602 C.ar    1  UNL1        0.0099
     11 C          62.4145   94.3870   -7.0905 C.ar    1  UNL1       -0.0038
     12 C          62.0947   94.2695   -5.6297 C.ar    1  UNL1       -0.0234
     13 C          63.1938   94.0251   -4.6387 C.ar    1  UNL1       -0.0094
     14 C          64.6127   93.8982   -5.1084 C.ar    1  UNL1        0.0070
     15 C          62.8741   93.9076   -3.1778 C.3     1  UNL1        0.0988
     16 N          61.4552   94.0345   -2.7081 N.3     1  UNL1       -0.2699
     17 C          60.3560   94.2789   -3.6992 C.3     1  UNL1        0.0770
     18 C          60.6758   94.3964   -5.1600 C.3     1  UNL1        0.0434
     19 N          67.7703   93.7619   -7.5086 N.1     1  UNL1       -0.1908
     20 C          66.3514   93.8888   -7.0389 C.1     1  UNL1        0.1004
     21 C          60.4963   92.2988    3.8735 C.3     1  UNL1        0.2042
     22 F          61.8180   92.5564    3.2127 F       1  UNL1       -0.2306
     23 C          59.0633   92.4808    4.2779 C.3     1  UNL1        0.0590
     24 C          58.4097   91.4865    5.1912 C.3     1  UNL1        0.0756
     25 N          59.1890   90.3102    5.7001 N.3     1  UNL1       -0.2688
     26 C          60.6220   90.1282    5.2958 C.3     1  UNL1        0.0756
     27 C          61.2756   91.1226    4.3824 C.3     1  UNL1        0.0590
     28 C          58.5354   89.3159    6.6134 C.3     1  UNL1        0.0993
     29 C          59.3672   88.5234    7.5778 C.ar    1  UNL1       -0.0018
     30 C          59.3999   87.0265    7.4860 C.ar    1  UNL1        0.0179
     31 C          60.2316   86.2339    8.4503 C.ar    1  UNL1        0.1000
     32 N          61.0307   86.9382    9.5064 N.ar    1  UNL1       -0.2296
     33 C          60.9981   88.4351    9.5983 C.ar    1  UNL1        0.1251
     34 N          61.7972   89.1393   10.6544 N.pl3   1  UNL1       -0.3426
     35 C          60.1663   89.2276    8.6339 C.ar    1  UNL1        0.0310
     36 H          62.3431   88.6190   11.2873 H       1  UNL1        0.1437
     37 H          61.7757   90.1217   10.7147 H       1  UNL1        0.1437
@<TRIPOS>BOND
     1    19    20    3
     2    20     9    1
     3     9    10   ar
     4    10    11   ar
     5    11    12   ar
     6    12    13   ar
     7    13    14   ar
     8    13    15    1
     9    15    16    1
    10    16     1    1
    11     1     2    1
    12     2     3    1
    13     3     4    1
    14     4     5   am
    15     5     6    2
    16     5    21    1
    17    21    22    1
    18    21    23    1
    19    23    24    1
    20    24    25    1
    21    25    28    1
    22    28    29    1
    23    29    30   ar
    24    30    31   ar
    25    31    32   ar
    26    32    33   ar
    27    33    34    1
    28    33    35   ar
    29    25    26    1
    30    26    27    1
    31     4     7    1
    32     7     8    1
    33    16    17    1
    34    17    18    1
    35    14     9   ar
    36     8     1    1
    37    18    12    1
    38    27    21    1
    39    35    29   ar
    40    34    36    1
    41    34    37    1
@<TRIPOS>MOLECULE
*****
 37 41 0 0 0
SMALL
GASTEIGER

@<TRIPOS>ATOM
      1 C          64.6336   90.2465   14.8542 C.3     1  UNL1        0.0612
      2 C          65.1488   88.9535   14.2949 C.3     1  UNL1        0.0375
      3 C          64.6154   87.6489   14.8080 C.3     1  UNL1        0.0949
      4 N          63.5667   87.6371   15.8804 N.am    1  UNL1       -0.2773
      5 C          63.0333   86.3325   16.3935 C.2     1  UNL1        0.2553
      6 O          61.9846   86.3207   17.4660 O.2     1  UNL1       -0.2720
      7 C          63.0515   88.9300   16.4398 C.3     1  UNL1        0.0949
      8 C          63.5849   90.2347   15.9267 C.3     1  UNL1        0.0375
      9 C          66.1889   94.7466   10.3731 C.ar    1  UNL1        0.0682
     10 C          66.7448   95.7582   11.3310 C.ar    1  UNL1        0.0099
     11 C          66.7673   95.4652   12.8019 C.ar    1  UNL1       -0.0038
     12 C          66.2339   94.1605   13.3150 C.ar    1  UNL1       -0.0234
     13 C          65.6779   93.1489   12.3572 C.ar    1  UNL1       -0.0094
     14 C          65.6555   93.4419   10.8862 C.ar    1  UNL1        0.0070
     15 C          65.1445   91.8442   12.8702 C.3     1  UNL1        0.0988
     16 N          65.1670   91.5512   14.3412 N.3     1  UNL1       -0.2699
     17 C          65.7229   92.5629   15.2990 C.3     1  UNL1        0.0770
     18 C          66.2564   93.8675   14.7859 C.3     1  UNL1        0.0434
     19 N          66.1439   95.3326    7.4313 N.1     1  UNL1       -0.1908
     20 C          66.1664   95.0396    8.9022 C.1     1  UNL1        0.1004
     21 C          63.5485   85.0395   15.8341 C.3     1  UNL1        0.2042
     22 F          64.8433   85.6895   16.2229 F       1  UNL1       -0.2306
     23 C          62.0749   84.8386   15.6396 C.3     1  UNL1        0.0590
     24 C          61.5661   83.5704   15.0208 C.3     1  UNL1        0.0756
     25 N          62.5310   82.5032   14.5965 N.3     1  UNL1       -0.2688
     26 C          64.0047   82.7042   14.7909 C.3     1  UNL1        0.0756
     27 C          64.5135   83.9724   15.4098 C.3     1  UNL1        0.0590
     28 C          62.0222   81.2351   13.9776 C.3     1  UNL1        0.0993
     29 C          62.4348   80.8622   12.5846 C.ar    1  UNL1       -0.0018
     30 C          62.8887   81.9241   11.6272 C.ar    1  UNL1        0.0179
     31 C          63.3013   81.5513   10.2341 C.ar    1  UNL1        0.1000
     32 N          63.2602   80.1166    9.7984 N.ar    1  UNL1       -0.2296
     33 C          62.8063   79.0546   10.7557 C.ar    1  UNL1        0.1251
     34 N          62.7652   77.6199   10.3199 N.pl3   1  UNL1       -0.3426
     35 C          62.3937   79.4275   12.1488 C.ar    1  UNL1        0.0310
     36 H          63.0361   77.3753    9.4056 H       1  UNL1        0.1437
     37 H          62.4674   76.9230   10.9482 H       1  UNL1        0.1437
@<TRIPOS>BOND
     1    19    20    3
     2    20     9    1
     3     9    10   ar
     4    10    11   ar
     5    11    12   ar
     6    12    13   ar
     7    13    14   ar
     8    13    15    1
     9    15    16    1
    10    16     1    1
    11     1     2    1
    12     2     3    1
    13     3     4    1
    14     4     5   am
    15     5     6    2
    16     5    21    1
    17    21    22    1
    18    21    23    1
    19    23    24    1
    20    24    25    1
    21    25    28    1
    22    28    29    1
    23    29    30   ar
    24    30    31   ar
    25    31    32   ar
    26    32    33   ar
    27    33    34    1
    28    33    35   ar
    29    25    26    1
    30    26    27    1
    31     4     7    1
    32     7     8    1
    33    16    17    1
    34    17    18    1
    35    14     9   ar
    36     8     1    1
    37    18    12    1
    38    27    21    1
    39    35    29   ar
    40    34    36    1
    41    34    37    1
@<TRIPOS>MOLECULE
*****
 37 41 0 0 0
SMALL
GASTEIGER

@<TRIPOS>ATOM
      1 C          61.3628   92.2619    3.0647 C.3     1  UNL1        0.0612
      2 C          61.9722   91.2028    3.9349 C.3     1  UNL1        0.0375
      3 C          61.1337   90.5026    4.9628 C.3     1  UNL1        0.0949
      4 N          59.6859   90.8614    5.1206 N.am    1  UNL1       -0.2773
      5 C          58.8474   90.1612    6.1485 C.2     1  UNL1        0.2553
      6 O          57.3995   90.5201    6.3063 O.2     1  UNL1       -0.2720
      7 C          59.0765   91.9204    4.2505 C.3     1  UNL1        0.0949
      8 C          59.9150   92.6207    3.2226 C.3     1  UNL1        0.0375
      9 C          63.0563   94.3251   -2.9039 C.ar    1  UNL1        0.0682
     10 C          64.3058   95.0440   -2.4894 C.ar    1  UNL1        0.0099
     11 C          64.7169   95.0627   -1.0469 C.ar    1  UNL1       -0.0038
     12 C          63.8784   94.3625   -0.0190 C.ar    1  UNL1       -0.0234
     13 C          62.6289   93.6436   -0.4336 C.ar    1  UNL1       -0.0094
     14 C          62.2178   93.6249   -1.8760 C.ar    1  UNL1        0.0070
     15 C          61.7903   92.9434    0.5944 C.3     1  UNL1        0.0988
     16 N          62.2013   92.9621    2.0368 N.3     1  UNL1       -0.2699
     17 C          63.4509   93.6810    2.4514 C.3     1  UNL1        0.0770
     18 C          64.2894   94.3812    1.4235 C.3     1  UNL1        0.0434
     19 N          62.2343   94.2878   -5.7889 N.1     1  UNL1       -0.1908
     20 C          62.6453   94.3065   -4.3464 C.1     1  UNL1        0.1004
     21 C          59.4568   89.1022    7.0187 C.3     1  UNL1        0.2042
     22 F          59.0139   88.2622    5.8574 F       1  UNL1       -0.2306
     23 C          59.6879   90.3099    7.8777 C.3     1  UNL1        0.0590
     24 C          60.3747   90.1668    9.2035 C.3     1  UNL1        0.0756
     25 N          60.8303   88.8160    9.6703 N.3     1  UNL1       -0.2688
     26 C          60.5991   87.6084    8.8113 C.3     1  UNL1        0.0756
     27 C          59.9123   87.7514    7.4854 C.3     1  UNL1        0.0590
     28 C          61.5170   88.6730   10.9962 C.3     1  UNL1        0.0993
     29 C          62.5260   89.6937   11.4322 C.ar    1  UNL1       -0.0018
     30 C          63.1401   90.6194   10.4242 C.ar    1  UNL1        0.0179
     31 C          64.1490   91.6402   10.8601 C.ar    1  UNL1        0.1000
     32 N          64.5440   91.7352   12.3040 N.ar    1  UNL1       -0.2296
     33 C          63.9299   90.8095   13.3121 C.ar    1  UNL1        0.1251
     34 N          64.3248   90.9046   14.7560 N.pl3   1  UNL1       -0.3426
     35 C          62.9209   89.7888   12.8761 C.ar    1  UNL1        0.0310
     36 H          64.9871   91.5746   15.0421 H       1  UNL1        0.1437
     37 H          63.9218   90.2971   15.4176 H       1  UNL1        0.1437
@<TRIPOS>BOND
     1    19    20    3
     2    20     9    1
     3     9    10   ar
     4    10    11   ar
     5    11    12   ar
     6    12    13   ar
     7    13    14   ar
     8    13    15    1
     9    15    16    1
    10    16     1    1
    11     1     2    1
    12     2     3    1
    13     3     4    1
    14     4     5   am
    15     5     6    2
    16     5    21    1
    17    21    22    1
    18    21    23    1
    19    23    24    1
    20    24    25    1
    21    25    28    1
    22    28    29    1
    23    29    30   ar
    24    30    31   ar
    25    31    32   ar
    26    32    33   ar
    27    33    34    1
    28    33    35   ar
    29    25    26    1
    30    26    27    1
    31     4     7    1
    32     7     8    1
    33    16    17    1
    34    17    18    1
    35    14     9   ar
    36     8     1    1
    37    18    12    1
    38    27    21    1
    39    35    29   ar
    40    34    36    1
    41    34    37    1
@<TRIPOS>MOLECULE
*****
 37 41 0 0 0
SMALL
GASTEIGER

@<TRIPOS>ATOM
      1 C          62.3176   85.7567   12.1690 C.3     1  UNL1        0.0612
      2 C          63.3590   86.7274   12.6416 C.3     1  UNL1        0.0375
      3 C          63.3466   88.1422   12.1438 C.3     1  UNL1        0.0949
      4 N          62.2927   88.5866   11.1732 N.am    1  UNL1       -0.2773
      5 C          62.2803   90.0015   10.6754 C.2     1  UNL1        0.2553
      6 O          61.2264   90.4458    9.7049 O.2     1  UNL1       -0.2720
      7 C          61.2513   87.6161   10.7006 C.3     1  UNL1        0.0949
      8 C          61.2637   86.2011   11.1985 C.3     1  UNL1        0.0375
      9 C          62.7508   79.2472   11.7355 C.ar    1  UNL1        0.0682
     10 C          62.5653   78.9647   13.1970 C.ar    1  UNL1        0.0099
     11 C          62.3673   80.0972   14.1605 C.ar    1  UNL1       -0.0038
     12 C          62.3549   81.5120   13.6626 C.ar    1  UNL1       -0.0234
     13 C          62.5404   81.7945   12.2012 C.ar    1  UNL1       -0.0094
     14 C          62.7383   80.6621   11.2377 C.ar    1  UNL1        0.0070
     15 C          62.5280   83.2094   11.7033 C.3     1  UNL1        0.0988
     16 N          62.3300   84.3419   12.6668 N.3     1  UNL1       -0.2699
     17 C          62.1445   84.0594   14.1283 C.3     1  UNL1        0.0770
     18 C          62.1569   82.6445   14.6262 C.3     1  UNL1        0.0434
     19 N          63.1467   76.9823    9.8085 N.1     1  UNL1       -0.1908
     20 C          62.9487   78.1148   10.7720 C.1     1  UNL1        0.1004
     21 C          63.3217   90.9721   11.1480 C.3     1  UNL1        0.2042
     22 F          63.3611   91.2453    9.6736 F       1  UNL1       -0.2306
     23 C          62.9207   90.3618   12.4582 C.3     1  UNL1        0.0590
     24 C          63.5748   90.8170   13.7291 C.3     1  UNL1        0.0756
     25 N          64.6299   91.8825   13.6896 N.3     1  UNL1       -0.2688
     26 C          65.0309   92.4928   12.3794 C.3     1  UNL1        0.0756
     27 C          64.3768   92.0375   11.1085 C.3     1  UNL1        0.0590
     28 C          65.2839   92.3377   14.9604 C.3     1  UNL1        0.0993
     29 C          66.7613   92.5947   14.9933 C.ar    1  UNL1       -0.0018
     30 C          67.3529   93.4318   16.0885 C.ar    1  UNL1        0.0179
     31 C          68.8303   93.6889   16.1215 C.ar    1  UNL1        0.1000
     32 N          69.7162   93.1089   15.0591 N.ar    1  UNL1       -0.2296
     33 C          69.1248   92.2719   13.9637 C.ar    1  UNL1        0.1251
     34 N          70.0108   91.6920   12.9013 N.pl3   1  UNL1       -0.3426
     35 C          67.6474   92.0148   13.9309 C.ar    1  UNL1        0.0310
     36 H          70.9805   91.8607   12.9230 H       1  UNL1        0.1437
     37 H          69.6227   91.1426   12.1825 H       1  UNL1        0.1437
@<TRIPOS>BOND
     1    19    20    3
     2    20     9    1
     3     9    10   ar
     4    10    11   ar
     5    11    12   ar
     6    12    13   ar
     7    13    14   ar
     8    13    15    1
     9    15    16    1
    10    16     1    1
    11     1     2    1
    12     2     3    1
    13     3     4    1
    14     4     5   am
    15     5     6    2
    16     5    21    1
    17    21    22    1
    18    21    23    1
    19    23    24    1
    20    24    25    1
    21    25    28    1
    22    28    29    1
    23    29    30   ar
    24    30    31   ar
    25    31    32   ar
    26    32    33   ar
    27    33    34    1
    28    33    35   ar
    29    25    26    1
    30    26    27    1
    31     4     7    1
    32     7     8    1
    33    16    17    1
    34    17    18    1
    35    14     9   ar
    36     8     1    1
    37    18    12    1
    38    27    21    1
    39    35    29   ar
    40    34    36    1
    41    34    37    1
@<TRIPOS>MOLECULE
*****
 37 41 0 0 0
SMALL
GASTEIGER

@<TRIPOS>ATOM
      1 C          60.1054   92.0825    3.8248 C.3     1  UNL1        0.0612
      2 C          61.1475   91.2516    4.5131 C.3     1  UNL1        0.0375
      3 C          60.7442   90.2696    5.5728 C.3     1  UNL1        0.0949
      4 N          59.2989   90.1186    5.9444 N.am    1  UNL1       -0.2773
      5 C          58.8956   89.1366    7.0041 C.2     1  UNL1        0.2553
      6 O          57.4502   88.9856    7.3757 O.2     1  UNL1       -0.2720
      7 C          58.2568   90.9495    5.2562 C.3     1  UNL1        0.0949
      8 C          58.6600   91.9315    4.1964 C.3     1  UNL1        0.0375
      9 C          62.8893   94.1041   -1.7351 C.ar    1  UNL1        0.0682
     10 C          62.5056   95.5482   -1.6045 C.ar    1  UNL1        0.0099
     11 C          61.7186   96.0104   -0.4141 C.ar    1  UNL1       -0.0038
     12 C          61.3153   95.0285    0.6456 C.ar    1  UNL1       -0.0234
     13 C          61.6990   93.5843    0.5150 C.ar    1  UNL1       -0.0094
     14 C          62.4860   93.1221   -0.6754 C.ar    1  UNL1        0.0070
     15 C          61.2957   92.6023    1.5747 C.3     1  UNL1        0.0988
     16 N          60.5087   93.0645    2.7651 N.3     1  UNL1       -0.2699
     17 C          60.1250   94.5088    2.8957 C.3     1  UNL1        0.0770
     18 C          60.5283   95.4907    1.8360 C.3     1  UNL1        0.0434
     19 N          64.4633   93.1797   -4.1159 N.1     1  UNL1       -0.1908
     20 C          63.6763   93.6419   -2.9255 C.1     1  UNL1        0.1004
     21 C          59.9377   88.3057    7.6923 C.3     1  UNL1        0.2042
     22 F          59.7198   87.4808    6.4585 F       1  UNL1       -0.2306
     23 C          59.7936   89.4190    8.6871 C.3     1  UNL1        0.0590
     24 C          60.6160   89.4151    9.9416 C.3     1  UNL1        0.0756
     25 N          61.5824   88.2976   10.2013 N.3     1  UNL1       -0.2688
     26 C          61.7265   87.1842    9.2065 C.3     1  UNL1        0.0756
     27 C          60.9041   87.1882    7.9520 C.3     1  UNL1        0.0590
     28 C          62.4047   88.2936   11.4557 C.3     1  UNL1        0.0993
     29 C          63.1494   89.5286   11.8683 C.ar    1  UNL1       -0.0018
     30 C          63.5231   89.7338   13.3065 C.ar    1  UNL1        0.0179
     31 C          64.2678   90.9687   13.7192 C.ar    1  UNL1        0.1000
     32 N          64.6389   91.9985   12.6936 N.ar    1  UNL1       -0.2296
     33 C          64.2653   91.7934   11.2553 C.ar    1  UNL1        0.1251
     34 N          64.6364   92.8232   10.2298 N.pl3   1  UNL1       -0.3426
     35 C          63.5206   90.5584   10.8428 C.ar    1  UNL1        0.0310
     36 H          65.1252   93.6337   10.5007 H       1  UNL1        0.1437
     37 H          64.3913   92.6886    9.2859 H       1  UNL1        0.1437
@<TRIPOS>BOND
     1    19    20    3
     2    20     9    1
     3     9    10   ar
     4    10    11   ar
     5    11    12   ar
     6    12    13   ar
     7    13    14   ar
     8    13    15    1
     9    15    16    1
    10    16     1    1
    11     1     2    1
    12     2     3    1
    13     3     4    1
    14     4     5   am
    15     5     6    2
    16     5    21    1
    17    21    22    1
    18    21    23    1
    19    23    24    1
    20    24    25    1
    21    25    28    1
    22    28    29    1
    23    29    30   ar
    24    30    31   ar
    25    31    32   ar
    26    32    33   ar
    27    33    34    1
    28    33    35   ar
    29    25    26    1
    30    26    27    1
    31     4     7    1
    32     7     8    1
    33    16    17    1
    34    17    18    1
    35    14     9   ar
    36     8     1    1
    37    18    12    1
    38    27    21    1
    39    35    29   ar
    40    34    36    1
    41    34    37    1
@<TRIPOS>MOLECULE
*****
 37 41 0 0 0
SMALL
GASTEIGER

@<TRIPOS>ATOM
      1 C          60.0852   91.7548    4.0051 C.3     1  UNL1        0.0612
      2 C          61.2238   91.2220    4.8236 C.3     1  UNL1        0.0375
      3 C          60.9526   90.2993    5.9746 C.3     1  UNL1        0.0949
      4 N          59.5429   89.9092    6.3072 N.am    1  UNL1       -0.2773
      5 C          59.2717   88.9864    7.4582 C.2     1  UNL1        0.2553
      6 O          57.8620   88.5964    7.7908 O.2     1  UNL1       -0.2720
      7 C          58.4044   90.4419    5.4887 C.3     1  UNL1        0.0949
      8 C          58.6755   91.3648    4.3376 C.3     1  UNL1        0.0375
      9 C          63.6804   95.5355    0.0641 C.ar    1  UNL1        0.0682
     10 C          62.5608   95.9521   -0.8430 C.ar    1  UNL1        0.0099
     11 C          61.1700   95.4459   -0.5991 C.ar    1  UNL1       -0.0038
     12 C          60.8988   94.5232    0.5519 C.ar    1  UNL1       -0.0234
     13 C          62.0184   94.1066    1.4591 C.ar    1  UNL1       -0.0094
     14 C          63.4092   94.6127    1.2152 C.ar    1  UNL1        0.0070
     15 C          61.7472   93.1837    2.6102 C.3     1  UNL1        0.0988
     16 N          60.3564   92.6776    2.8541 N.3     1  UNL1       -0.2699
     17 C          59.2368   93.0942    1.9469 C.3     1  UNL1        0.0770
     18 C          59.5080   94.0170    0.7958 C.3     1  UNL1        0.0434
     19 N          66.4619   96.5479   -0.4237 N.1     1  UNL1       -0.1908
     20 C          65.0712   96.0417   -0.1798 C.1     1  UNL1        0.1004
     21 C          60.4102   88.4537    8.2768 C.3     1  UNL1        0.2042
     22 F          60.3063   89.8380    8.8450 F       1  UNL1       -0.2306
     23 C          60.1187   87.2544    7.4243 C.3     1  UNL1        0.0590
     24 C          60.9296   86.0031    7.5877 C.3     1  UNL1        0.0756
     25 N          62.0321   85.9512    8.6036 N.3     1  UNL1       -0.2688
     26 C          62.3236   87.1504    9.4560 C.3     1  UNL1        0.0756
     27 C          61.5126   88.4018    9.2926 C.3     1  UNL1        0.0590
     28 C          62.8430   84.6999    8.7670 C.3     1  UNL1        0.0993
     29 C          63.2072   84.2160   10.1392 C.ar    1  UNL1       -0.0018
     30 C          64.2402   83.1412   10.3059 C.ar    1  UNL1        0.0179
     31 C          64.6046   82.6573   11.6781 C.ar    1  UNL1        0.1000
     32 N          63.9359   83.2482   12.8838 N.ar    1  UNL1       -0.2296
     33 C          62.9028   84.3230   12.7172 C.ar    1  UNL1        0.1251
     34 N          62.2342   84.9139   13.9229 N.pl3   1  UNL1       -0.3426
     35 C          62.5386   84.8069   11.3450 C.ar    1  UNL1        0.0310
     36 H          62.4733   84.5963   14.8236 H       1  UNL1        0.1437
     37 H          61.5562   85.6193   13.8136 H       1  UNL1        0.1437
@<TRIPOS>BOND
     1    19    20    3
     2    20     9    1
     3     9    10   ar
     4    10    11   ar
     5    11    12   ar
     6    12    13   ar
     7    13    14   ar
     8    13    15    1
     9    15    16    1
    10    16     1    1
    11     1     2    1
    12     2     3    1
    13     3     4    1
    14     4     5   am
    15     5     6    2
    16     5    21    1
    17    21    22    1
    18    21    23    1
    19    23    24    1
    20    24    25    1
    21    25    28    1
    22    28    29    1
    23    29    30   ar
    24    30    31   ar
    25    31    32   ar
    26    32    33   ar
    27    33    34    1
    28    33    35   ar
    29    25    26    1
    30    26    27    1
    31     4     7    1
    32     7     8    1
    33    16    17    1
    34    17    18    1
    35    14     9   ar
    36     8     1    1
    37    18    12    1
    38    27    21    1
    39    35    29   ar
    40    34    36    1
    41    34    37    1
@<TRIPOS>MOLECULE
*****
 37 41 0 0 0
SMALL
GASTEIGER

@<TRIPOS>ATOM
      1 C          59.5360   91.8589    4.1299 C.3     1  UNL1        0.0612
      2 C          60.7566   91.4085    4.8765 C.3     1  UNL1        0.0375
      3 C          60.6303   90.4061    5.9852 C.3     1  UNL1        0.0949
      4 N          59.2834   89.8539    6.3472 N.am    1  UNL1       -0.2773
      5 C          59.1571   88.8515    7.4558 C.2     1  UNL1        0.2553
      6 O          57.8102   88.2993    7.8179 O.2     1  UNL1       -0.2720
      7 C          58.0629   90.3042    5.6006 C.3     1  UNL1        0.0949
      8 C          58.1891   91.3067    4.4919 C.3     1  UNL1        0.0375
      9 C          58.9565   94.1806   -1.9548 C.ar    1  UNL1        0.0682
     10 C          59.5621   95.5259   -1.6840 C.ar    1  UNL1        0.0099
     11 C          60.0413   95.8688   -0.3046 C.ar    1  UNL1       -0.0038
     12 C          59.9150   94.8663    0.8040 C.ar    1  UNL1       -0.0234
     13 C          59.3094   93.5210    0.5332 C.ar    1  UNL1       -0.0094
     14 C          58.8302   93.1781   -0.8462 C.ar    1  UNL1        0.0070
     15 C          59.1831   92.5185    1.6419 C.3     1  UNL1        0.0988
     16 N          59.6623   92.8613    3.0213 N.3     1  UNL1       -0.2699
     17 C          60.2679   94.2067    3.2920 C.3     1  UNL1        0.0770
     18 C          60.3942   95.2092    2.1834 C.3     1  UNL1        0.0434
     19 N          57.9981   93.4948   -4.7137 N.1     1  UNL1       -0.1908
     20 C          58.4773   93.8377   -3.3342 C.1     1  UNL1        0.1004
     21 C          60.3777   88.4011    8.2025 C.3     1  UNL1        0.2042
     22 F          60.2680   89.8092    8.7078 F       1  UNL1       -0.2306
     23 C          60.0635   87.1495    7.4379 C.3     1  UNL1        0.0590
     24 C          60.9318   85.9365    7.5953 C.3     1  UNL1        0.0756
     25 N          62.1143   85.9752    8.5175 N.3     1  UNL1       -0.2688
     26 C          62.4284   87.2269    9.2821 C.3     1  UNL1        0.0756
     27 C          61.5601   88.4399    9.1246 C.3     1  UNL1        0.0590
     28 C          62.9825   84.7623    8.6750 C.3     1  UNL1        0.0993
     29 C          63.2755   84.2221   10.0433 C.ar    1  UNL1       -0.0018
     30 C          64.2070   83.0577   10.2064 C.ar    1  UNL1        0.0179
     31 C          64.5000   82.5175   11.5747 C.ar    1  UNL1        0.1000
     32 N          63.8615   83.1417   12.7800 N.ar    1  UNL1       -0.2296
     33 C          62.9300   84.3061   12.6169 C.ar    1  UNL1        0.1251
     34 N          62.2915   84.9302   13.8222 N.pl3   1  UNL1       -0.3426
     35 C          62.6370   84.8463   11.2486 C.ar    1  UNL1        0.0310
     36 H          62.4838   84.5757   14.7203 H       1  UNL1        0.1437
     37 H          61.6801   85.6944   13.7153 H       1  UNL1        0.1437
@<TRIPOS>BOND
     1    19    20    3
     2    20     9    1
     3     9    10   ar
     4    10    11   ar
     5    11    12   ar
     6    12    13   ar
     7    13    14   ar
     8    13    15    1
     9    15    16    1
    10    16     1    1
    11     1     2    1
    12     2     3    1
    13     3     4    1
    14     4     5   am
    15     5     6    2
    16     5    21    1
    17    21    22    1
    18    21    23    1
    19    23    24    1
    20    24    25    1
    21    25    28    1
    22    28    29    1
    23    29    30   ar
    24    30    31   ar
    25    31    32   ar
    26    32    33   ar
    27    33    34    1
    28    33    35   ar
    29    25    26    1
    30    26    27    1
    31     4     7    1
    32     7     8    1
    33    16    17    1
    34    17    18    1
    35    14     9   ar
    36     8     1    1
    37    18    12    1
    38    27    21    1
    39    35    29   ar
    40    34    36    1
    41    34    37    1
@<TRIPOS>MOLECULE
*****
 37 41 0 0 0
SMALL
GASTEIGER

@<TRIPOS>ATOM
      1 C          62.5745   85.8518   12.6466 C.3     1  UNL1        0.0612
      2 C          63.5993   86.7113   13.3257 C.3     1  UNL1        0.0375
      3 C          63.6931   88.1710   12.9935 C.3     1  UNL1        0.0949
      4 N          62.7621   88.7713   11.9822 N.am    1  UNL1       -0.2773
      5 C          62.8558   90.2310   11.6500 C.2     1  UNL1        0.2553
      6 O          61.9248   90.8314   10.6386 O.2     1  UNL1       -0.2720
      7 C          61.7373   87.9120   11.3031 C.3     1  UNL1        0.0949
      8 C          61.6435   86.4522   11.6353 C.3     1  UNL1        0.0375
      9 C          62.8147   79.4152   11.5232 C.ar    1  UNL1        0.0682
     10 C          62.4602   78.9842   12.9155 C.ar    1  UNL1        0.0099
     11 C          62.1995   80.0129   13.9756 C.ar    1  UNL1       -0.0038
     12 C          62.2932   81.4727   13.6433 C.ar    1  UNL1       -0.0234
     13 C          62.6477   81.9036   12.2511 C.ar    1  UNL1       -0.0094
     14 C          62.9084   80.8749   11.1910 C.ar    1  UNL1        0.0070
     15 C          62.7415   83.3634   11.9188 C.3     1  UNL1        0.0988
     16 N          62.4808   84.3921   12.9788 N.3     1  UNL1       -0.2699
     17 C          62.1262   83.9611   14.3712 C.3     1  UNL1        0.0770
     18 C          62.0325   82.5014   14.7034 C.3     1  UNL1        0.0434
     19 N          63.3361   77.3578    9.4031 N.1     1  UNL1       -0.1908
     20 C          63.0754   78.3865   10.4631 C.1     1  UNL1        0.1004
     21 C          63.8807   91.0905   12.3291 C.3     1  UNL1        0.2042
     22 F          63.3472   90.3375   13.5117 F       1  UNL1       -0.2306
     23 C          64.0582   91.5450   10.9107 C.3     1  UNL1        0.0590
     24 C          65.0753   92.5974   10.5821 C.3     1  UNL1        0.0756
     25 N          65.9148   93.1953   11.6719 N.3     1  UNL1       -0.2688
     26 C          65.7373   92.7408   13.0903 C.3     1  UNL1        0.0756
     27 C          64.7201   91.6884   13.4189 C.3     1  UNL1        0.0590
     28 C          66.9319   94.2477   11.3433 C.3     1  UNL1        0.0993
     29 C          66.7555   95.1074   10.1269 C.ar    1  UNL1       -0.0018
     30 C          67.9513   95.5228    9.3222 C.ar    1  UNL1        0.0179
     31 C          67.7750   96.3824    8.1057 C.ar    1  UNL1        0.1000
     32 N          66.4028   96.8267    7.6939 N.ar    1  UNL1       -0.2296
     33 C          65.2068   96.4114    8.4986 C.ar    1  UNL1        0.1251
     34 N          63.8347   96.8557    8.0867 N.pl3   1  UNL1       -0.3426
     35 C          65.3833   95.5517    9.7150 C.ar    1  UNL1        0.0310
     36 H          63.7190   97.4199    7.2882 H       1  UNL1        0.1437
     37 H          63.0498   96.5831    8.6148 H       1  UNL1        0.1437
@<TRIPOS>BOND
     1    19    20    3
     2    20     9    1
     3     9    10   ar
     4    10    11   ar
     5    11    12   ar
     6    12    13   ar
     7    13    14   ar
     8    13    15    1
     9    15    16    1
    10    16     1    1
    11     1     2    1
    12     2     3    1
    13     3     4    1
    14     4     5   am
    15     5     6    2
    16     5    21    1
    17    21    22    1
    18    21    23    1
    19    23    24    1
    20    24    25    1
    21    25    28    1
    22    28    29    1
    23    29    30   ar
    24    30    31   ar
    25    31    32   ar
    26    32    33   ar
    27    33    34    1
    28    33    35   ar
    29    25    26    1
    30    26    27    1
    31     4     7    1
    32     7     8    1
    33    16    17    1
    34    17    18    1
    35    14     9   ar
    36     8     1    1
    37    18    12    1
    38    27    21    1
    39    35    29   ar
    40    34    36    1
    41    34    37    1
