@<TRIPOS>MOLECULE
*****
 28 30 0 0 0
SMALL
GASTEIGER

@<TRIPOS>ATOM
      1 C          62.9963   89.2841   12.1306 C.2     1  UNL1        0.0731
      2 C          63.7831   89.7351   13.3254 C.2     1  UNL1        0.0530
      3 N          64.3093   88.7252   14.3017 N.pl3   1  UNL1       -0.3173
      4 C          64.0487   87.2643   14.0832 C.2     1  UNL1        0.0317
      5 C          64.5749   86.2543   15.0595 C.3     1  UNL1        0.0475
      6 C          63.2619   86.8133   12.8884 C.2     1  UNL1        0.0635
      7 C          62.7358   87.8232   11.9121 C.3     1  UNL1        0.0855
      8 H          64.8257   89.0212   15.0859 H       1  UNL1        0.1517
      9 C          61.9490   87.3722   10.7173 C.ar    1  UNL1       -0.0026
     10 C          62.6499   86.7322    9.5558 C.ar    1  UNL1       -0.0005
     11 C          61.8632   86.2812    8.3610 C.ar    1  UNL1        0.0294
     12 C          60.3755   86.4701    8.3276 C.ar    1  UNL1        0.1410
     13 F          59.5888   86.0190    7.1328 F       1  UNL1       -0.2041
     14 C          59.6745   87.1101    9.4891 C.ar    1  UNL1        0.0407
     15 C          60.4613   87.5611   10.6840 C.ar    1  UNL1        0.0566
     16 CL         59.7604   88.2011   11.8455 Cl      1  UNL1       -0.0825
     17 C          62.4702   90.2941   11.1543 C.2     1  UNL1        0.3389
     18 O          61.0603   90.7913   11.2762 O.2     1  UNL1       -0.2452
     19 C          64.2910   91.9482   10.3186 C.3     1  UNL1        0.2559
     20 O          63.3539   90.8068   10.0561 O.3     1  UNL1       -0.4415
     21 C          63.0013   85.3523   12.6699 C.1     1  UNL1        0.0976
     22 N          62.7407   83.8914   12.4513 N.1     1  UNL1       -0.1911
     23 C          64.0437   91.1961   13.5440 C.3     1  UNL1        0.1716
     24 N          64.5409   91.6784   14.8744 N.ar    1  UNL1       -0.2049
     25 C          65.9133   92.2109   15.1624 C.ar    1  UNL1        0.2218
     26 N          65.9737   92.5745   16.6164 N.ar    1  UNL1       -0.1048
     27 N          64.6385   92.2668   17.2270 N.ar    1  UNL1       -0.0225
     28 N          63.7531   91.7130   16.1504 N.ar    1  UNL1       -0.0425
@<TRIPOS>BOND
     1    19    20    1
     2    20    17    1
     3    17    18    2
     4    17     1    1
     5     1     2    2
     6     2    23    1
     7    23    24    1
     8    24    25   ar
     9    25    26   ar
    10    26    27   ar
    11    27    28   ar
    12     2     3    1
    13     3     4    1
    14     4     5    1
    15     4     6    2
    16     6    21    1
    17    21    22    3
    18     6     7    1
    19     7     9    1
    20     9    10   ar
    21    10    11   ar
    22    11    12   ar
    23    12    13    1
    24    12    14   ar
    25    14    15   ar
    26    15    16    1
    27     7     1    1
    28    15     9   ar
    29    28    24   ar
    30     3     8    1
@<TRIPOS>MOLECULE
*****
 28 30 0 0 0
SMALL
GASTEIGER

@<TRIPOS>ATOM
      1 C          63.7544   86.0634   13.5659 C.2     1  UNL1        0.0731
      2 C          63.8529   87.5512   13.7286 C.2     1  UNL1        0.0530
      3 N          63.2379   88.4599   12.7058 N.pl3   1  UNL1       -0.3173
      4 C          62.5244   87.8807   11.5204 C.2     1  UNL1        0.0317
      5 C          61.9094   88.7894   10.4976 C.3     1  UNL1        0.0475
      6 C          62.4258   86.3929   11.3577 C.2     1  UNL1        0.0635
      7 C          63.0408   85.4842   12.3805 C.3     1  UNL1        0.0855
      8 H          63.3027   89.4365   12.8126 H       1  UNL1        0.1517
      9 C          62.9422   83.9963   12.2178 C.ar    1  UNL1       -0.0026
     10 C          62.1679   83.1828   13.2121 C.ar    1  UNL1       -0.0005
     11 C          62.0692   81.6949   13.0494 C.ar    1  UNL1        0.0294
     12 C          62.7449   81.0205   11.8924 C.ar    1  UNL1        0.1410
     13 F          62.6463   79.5326   11.7297 F       1  UNL1       -0.2041
     14 C          63.5193   81.8340   10.8981 C.ar    1  UNL1        0.0407
     15 C          63.6179   83.3219   11.0608 C.ar    1  UNL1        0.0566
     16 CL         64.3922   84.1354   10.0665 Cl      1  UNL1       -0.0825
     17 C          64.3693   85.1547   14.5887 C.2     1  UNL1        0.3389
     18 O          65.5926   84.3575   14.2449 O.2     1  UNL1       -0.2452
     19 C          62.2731   85.1302   16.1233 C.3     1  UNL1        0.2559
     20 O          63.7611   85.0432   15.9553 O.3     1  UNL1       -0.4415
     21 C          61.7122   85.8136   10.1722 C.1     1  UNL1        0.0976
     22 N          60.9986   85.2344    8.9868 N.1     1  UNL1       -0.1911
     23 C          64.5665   88.1305   14.9141 C.3     1  UNL1        0.1716
     24 N          64.3532   89.5669   15.2896 N.ar    1  UNL1       -0.2049
     25 C          65.1588   90.7346   14.8021 C.ar    1  UNL1        0.2218
     26 N          64.6003   91.9773   15.4297 N.ar    1  UNL1       -0.1048
     27 N          63.4497   91.5776   16.3051 N.ar    1  UNL1       -0.0225
     28 N          63.2970   90.0880   16.2185 N.ar    1  UNL1       -0.0425
@<TRIPOS>BOND
     1    19    20    1
     2    20    17    1
     3    17    18    2
     4    17     1    1
     5     1     2    2
     6     2    23    1
     7    23    24    1
     8    24    25   ar
     9    25    26   ar
    10    26    27   ar
    11    27    28   ar
    12     2     3    1
    13     3     4    1
    14     4     5    1
    15     4     6    2
    16     6    21    1
    17    21    22    3
    18     6     7    1
    19     7     9    1
    20     9    10   ar
    21    10    11   ar
    22    11    12   ar
    23    12    13    1
    24    12    14   ar
    25    14    15   ar
    26    15    16    1
    27     7     1    1
    28    15     9   ar
    29    28    24   ar
    30     3     8    1
@<TRIPOS>MOLECULE
*****
 28 30 0 0 0
SMALL
GASTEIGER

@<TRIPOS>ATOM
      1 C          62.9997   89.0039   12.1694 C.2     1  UNL1        0.0731
      2 C          63.7491   89.4389   13.3937 C.2     1  UNL1        0.0530
      3 N          64.2689   88.4146   14.3584 N.pl3   1  UNL1       -0.3173
      4 C          64.0393   86.9552   14.0987 C.2     1  UNL1        0.0317
      5 C          64.5591   85.9309   15.0634 C.3     1  UNL1        0.0475
      6 C          63.2899   86.5202   12.8744 C.2     1  UNL1        0.0635
      7 C          62.7701   87.5445   11.9097 C.3     1  UNL1        0.0855
      8 H          64.7608   88.7001   15.1620 H       1  UNL1        0.1517
      9 C          62.0207   87.1094   10.6853 C.ar    1  UNL1       -0.0026
     10 C          62.7601   86.5043    9.5289 C.ar    1  UNL1       -0.0005
     11 C          62.0108   86.0692    8.3046 C.ar    1  UNL1        0.0294
     12 C          60.5219   86.2392    8.2365 C.ar    1  UNL1        0.1410
     13 F          59.7726   85.8040    7.0121 F       1  UNL1       -0.2041
     14 C          59.7825   86.8442    9.3929 C.ar    1  UNL1        0.0407
     15 C          60.5319   87.2793   10.6173 C.ar    1  UNL1        0.0566
     16 CL         59.7925   87.8844   11.7736 Cl      1  UNL1       -0.0825
     17 C          62.4800   90.0282   11.2047 C.2     1  UNL1        0.3389
     18 O          63.2391   90.3261    9.9458 O.2     1  UNL1       -0.2452
     19 C          60.0536   90.6730   10.5363 C.3     1  UNL1        0.2559
     20 O          61.2010   90.7546   11.4989 O.3     1  UNL1       -0.4415
     21 C          63.0602   85.0607   12.6146 C.1     1  UNL1        0.0976
     22 N          62.8306   83.6014   12.3549 N.1     1  UNL1       -0.1911
     23 C          63.9788   90.8983   13.6535 C.3     1  UNL1        0.1716
     24 N          65.2726   91.5382   13.2455 N.ar    1  UNL1       -0.2049
     25 C          65.4998   92.3578   12.0100 C.ar    1  UNL1        0.2218
     26 N          66.9340   92.7970   12.0023 N.ar    1  UNL1       -0.1048
     27 N          67.5933   92.2488   13.2332 N.ar    1  UNL1       -0.0225
     28 N          66.5665   91.4709   14.0015 N.ar    1  UNL1       -0.0425
@<TRIPOS>BOND
     1    19    20    1
     2    20    17    1
     3    17    18    2
     4    17     1    1
     5     1     2    2
     6     2    23    1
     7    23    24    1
     8    24    25   ar
     9    25    26   ar
    10    26    27   ar
    11    27    28   ar
    12     2     3    1
    13     3     4    1
    14     4     5    1
    15     4     6    2
    16     6    21    1
    17    21    22    3
    18     6     7    1
    19     7     9    1
    20     9    10   ar
    21    10    11   ar
    22    11    12   ar
    23    12    13    1
    24    12    14   ar
    25    14    15   ar
    26    15    16    1
    27     7     1    1
    28    15     9   ar
    29    28    24   ar
    30     3     8    1
@<TRIPOS>MOLECULE
*****
 28 30 0 0 0
SMALL
GASTEIGER

@<TRIPOS>ATOM
      1 C          63.2528   87.0562   12.6907 C.2     1  UNL1        0.0731
      2 C          63.9985   87.6797   13.8331 C.2     1  UNL1        0.0530
      3 N          64.2884   89.1514   13.8255 N.pl3   1  UNL1       -0.3173
      4 C          63.8325   89.9996   12.6755 C.2     1  UNL1        0.0317
      5 C          64.1224   91.4713   12.6679 C.3     1  UNL1        0.0475
      6 C          63.0868   89.3762   11.5331 C.2     1  UNL1        0.0635
      7 C          62.7969   87.9045   11.5407 C.3     1  UNL1        0.0855
      8 H          64.7778   89.5606   14.5753 H       1  UNL1        0.1517
      9 C          62.0512   87.2810   10.3981 C.ar    1  UNL1       -0.0026
     10 C          62.7913   86.4835    9.3656 C.ar    1  UNL1       -0.0005
     11 C          62.0456   85.8601    8.2231 C.ar    1  UNL1        0.0294
     12 C          60.5598   86.0342    8.1132 C.ar    1  UNL1        0.1410
     13 F          59.8141   85.4108    6.9707 F       1  UNL1       -0.2041
     14 C          59.8197   86.8317    9.1458 C.ar    1  UNL1        0.0407
     15 C          60.5654   87.4551   10.2883 C.ar    1  UNL1        0.0566
     16 CL         59.8253   88.2527   11.3208 Cl      1  UNL1       -0.0825
     17 C          62.9629   85.5845   12.6983 C.2     1  UNL1        0.3389
     18 O          61.6320   85.0847   13.1766 O.2     1  UNL1       -0.2452
     19 C          64.4879   83.5290   13.1450 C.3     1  UNL1        0.2559
     20 O          64.0040   84.6126   12.2275 O.3     1  UNL1       -0.4415
     21 C          62.6309   90.2245   10.3829 C.1     1  UNL1        0.0976
     22 N          62.1751   91.0727    9.2329 N.1     1  UNL1       -0.1911
     23 C          64.4544   86.8314   14.9832 C.3     1  UNL1        0.1716
     24 N          63.5327   86.5766   16.1388 N.ar    1  UNL1       -0.2049
     25 C          63.2084   87.5445   17.2380 C.ar    1  UNL1        0.2218
     26 N          62.2488   86.8753   18.1767 N.ar    1  UNL1       -0.1048
     27 N          61.9799   85.4938   17.6577 N.ar    1  UNL1       -0.0225
     28 N          62.7735   85.3092   16.3983 N.ar    1  UNL1       -0.0425
@<TRIPOS>BOND
     1    19    20    1
     2    20    17    1
     3    17    18    2
     4    17     1    1
     5     1     2    2
     6     2    23    1
     7    23    24    1
     8    24    25   ar
     9    25    26   ar
    10    26    27   ar
    11    27    28   ar
    12     2     3    1
    13     3     4    1
    14     4     5    1
    15     4     6    2
    16     6    21    1
    17    21    22    3
    18     6     7    1
    19     7     9    1
    20     9    10   ar
    21    10    11   ar
    22    11    12   ar
    23    12    13    1
    24    12    14   ar
    25    14    15   ar
    26    15    16    1
    27     7     1    1
    28    15     9   ar
    29    28    24   ar
    30     3     8    1
@<TRIPOS>MOLECULE
*****
 28 30 0 0 0
SMALL
GASTEIGER

@<TRIPOS>ATOM
      1 C          62.7142   85.5679   11.5563 C.2     1  UNL1        0.0731
      2 C          62.7636   85.1829   10.1074 C.2     1  UNL1        0.0530
      3 N          63.0692   83.7671    9.7176 N.pl3   1  UNL1       -0.3173
      4 C          63.3254   82.7362   10.7766 C.2     1  UNL1        0.0317
      5 C          63.6310   81.3203   10.3868 C.3     1  UNL1        0.0475
      6 C          63.2760   83.1212   12.2255 C.2     1  UNL1        0.0635
      7 C          62.9704   84.5370   12.6153 C.3     1  UNL1        0.0855
      8 H          63.1017   83.5144    8.7666 H       1  UNL1        0.1517
      9 C          62.9210   84.9220   14.0643 C.ar    1  UNL1       -0.0026
     10 C          61.6110   84.9265   14.7949 C.ar    1  UNL1       -0.0005
     11 C          61.5615   85.3114   16.2437 C.ar    1  UNL1        0.0294
     12 C          62.8222   85.6918   16.9622 C.ar    1  UNL1        0.1410
     13 F          62.7727   86.0767   18.4111 F       1  UNL1       -0.2041
     14 C          64.1322   85.6873   16.2316 C.ar    1  UNL1        0.0407
     15 C          64.1816   85.3024   14.7826 C.ar    1  UNL1        0.0566
     16 CL         65.4917   85.2979   14.0521 Cl      1  UNL1       -0.0825
     17 C          62.4087   86.9838   11.9461 C.2     1  UNL1        0.3389
     18 O          61.0204   87.5256   11.7758 O.2     1  UNL1       -0.2452
     19 C          63.2683   89.3350   12.6410 C.3     1  UNL1        0.2559
     20 O          63.4914   87.8578   12.5063 O.3     1  UNL1       -0.4415
     21 C          63.5322   82.0903   13.2846 C.1     1  UNL1        0.0976
     22 N          63.7883   81.0594   14.3437 N.1     1  UNL1       -0.1911
     23 C          62.5075   86.2138    9.0483 C.3     1  UNL1        0.1716
     24 N          61.1233   86.3985    8.5006 N.ar    1  UNL1       -0.2049
     25 C          60.1350   87.4399    8.9349 C.ar    1  UNL1        0.2218
     26 N          58.8853   87.2592    8.1252 N.ar    1  UNL1       -0.1048
     27 N          59.1013   86.1061    7.1904 N.ar    1  UNL1       -0.0225
     28 N          60.4845   85.5742    7.4224 N.ar    1  UNL1       -0.0425
@<TRIPOS>BOND
     1    19    20    1
     2    20    17    1
     3    17    18    2
     4    17     1    1
     5     1     2    2
     6     2    23    1
     7    23    24    1
     8    24    25   ar
     9    25    26   ar
    10    26    27   ar
    11    27    28   ar
    12     2     3    1
    13     3     4    1
    14     4     5    1
    15     4     6    2
    16     6    21    1
    17    21    22    3
    18     6     7    1
    19     7     9    1
    20     9    10   ar
    21    10    11   ar
    22    11    12   ar
    23    12    13    1
    24    12    14   ar
    25    14    15   ar
    26    15    16    1
    27     7     1    1
    28    15     9   ar
    29    28    24   ar
    30     3     8    1
@<TRIPOS>MOLECULE
*****
 28 30 0 0 0
SMALL
GASTEIGER

@<TRIPOS>ATOM
      1 C          63.7241   87.0428   13.7502 C.2     1  UNL1        0.0731
      2 C          63.1730   85.9348   12.9025 C.2     1  UNL1        0.0530
      3 N          62.5304   86.2479   11.5838 N.pl3   1  UNL1       -0.3173
      4 C          62.4389   87.6690   11.1127 C.2     1  UNL1        0.0317
      5 C          61.7963   87.9821    9.7940 C.3     1  UNL1        0.0475
      6 C          62.9899   88.7771   11.9604 C.2     1  UNL1        0.0635
      7 C          63.6325   88.4640   13.2791 C.3     1  UNL1        0.0855
      8 H          62.1687   85.5206   11.0275 H       1  UNL1        0.1517
      9 C          64.1836   89.5721   14.1268 C.ar    1  UNL1       -0.0026
     10 C          65.5077   90.1892   13.7864 C.ar    1  UNL1       -0.0005
     11 C          66.0588   91.2973   14.6340 C.ar    1  UNL1        0.0294
     12 C          65.2857   91.7883   15.8220 C.ar    1  UNL1        0.1410
     13 F          65.8368   92.8964   16.6696 F       1  UNL1       -0.2041
     14 C          63.9616   91.1712   16.1624 C.ar    1  UNL1        0.0407
     15 C          63.4105   90.0631   15.3147 C.ar    1  UNL1        0.0566
     16 CL         62.0864   89.4460   15.6551 Cl      1  UNL1       -0.0825
     17 C          64.3667   86.7297   15.0689 C.2     1  UNL1        0.3389
     18 O          65.7924   86.2663   15.1172 O.2     1  UNL1       -0.2452
     19 C          62.7657   85.7339   16.8564 C.3     1  UNL1        0.2559
     20 O          63.5835   86.8801   16.3393 O.3     1  UNL1       -0.4415
     21 C          62.8984   90.1983   11.4893 C.1     1  UNL1        0.0976
     22 N          62.8069   91.6194   11.0183 N.1     1  UNL1       -0.1911
     23 C          63.2645   84.5136   13.3736 C.3     1  UNL1        0.1716
     24 N          63.4193   83.4021   12.3784 N.ar    1  UNL1       -0.2049
     25 C          62.6410   82.1199   12.3606 C.ar    1  UNL1        0.2218
     26 N          63.1202   81.3030   11.1974 N.ar    1  UNL1       -0.1048
     27 N          64.1946   82.0803   10.4962 N.ar    1  UNL1       -0.0225
     28 N          64.3794   83.3776   11.2261 N.ar    1  UNL1       -0.0425
@<TRIPOS>BOND
     1    19    20    1
     2    20    17    1
     3    17    18    2
     4    17     1    1
     5     1     2    2
     6     2    23    1
     7    23    24    1
     8    24    25   ar
     9    25    26   ar
    10    26    27   ar
    11    27    28   ar
    12     2     3    1
    13     3     4    1
    14     4     5    1
    15     4     6    2
    16     6    21    1
    17    21    22    3
    18     6     7    1
    19     7     9    1
    20     9    10   ar
    21    10    11   ar
    22    11    12   ar
    23    12    13    1
    24    12    14   ar
    25    14    15   ar
    26    15    16    1
    27     7     1    1
    28    15     9   ar
    29    28    24   ar
    30     3     8    1
@<TRIPOS>MOLECULE
*****
 28 30 0 0 0
SMALL
GASTEIGER

@<TRIPOS>ATOM
      1 C          62.7882   86.0507   11.4695 C.2     1  UNL1        0.0731
      2 C          62.9000   87.4872   11.8862 C.2     1  UNL1        0.0530
      3 N          63.5136   87.8388   13.2090 N.pl3   1  UNL1       -0.3173
      4 C          64.0154   86.7539   14.1151 C.2     1  UNL1        0.0317
      5 C          64.6290   87.1055   15.4379 C.3     1  UNL1        0.0475
      6 C          63.9035   85.3173   13.6984 C.2     1  UNL1        0.0635
      7 C          63.2899   84.9657   12.3756 C.3     1  UNL1        0.0855
      8 H          63.5871   88.7817   13.4825 H       1  UNL1        0.1517
      9 C          63.1781   83.5290   11.9589 C.ar    1  UNL1       -0.0026
     10 C          63.8713   83.0522   10.7171 C.ar    1  UNL1       -0.0005
     11 C          63.7595   81.6156   10.3004 C.ar    1  UNL1        0.0294
     12 C          62.9544   80.6558   11.1255 C.ar    1  UNL1        0.1410
     13 F          62.8426   79.2192   10.7087 F       1  UNL1       -0.2041
     14 C          62.2612   81.1326   12.3673 C.ar    1  UNL1        0.0407
     15 C          62.3730   82.5693   12.7840 C.ar    1  UNL1        0.0566
     16 CL         61.6798   83.0462   14.0258 Cl      1  UNL1       -0.0825
     17 C          62.1745   85.6990   10.1466 C.2     1  UNL1        0.3389
     18 O          63.0448   85.2397    9.0146 O.2     1  UNL1       -0.2452
     19 C          60.1381   86.5565    8.7802 C.3     1  UNL1        0.2559
     20 O          60.6907   85.8067    9.9559 O.3     1  UNL1       -0.4415
     21 C          64.4053   84.2323   14.6045 C.1     1  UNL1        0.0976
     22 N          64.9070   83.1473   15.5106 N.1     1  UNL1       -0.1911
     23 C          62.3982   88.5723   10.9801 C.3     1  UNL1        0.1716
     24 N          61.0883   89.2438   11.2680 N.ar    1  UNL1       -0.2049
     25 C          60.6763   90.6090   10.8027 C.ar    1  UNL1        0.2218
     26 N          59.2937   90.8770   11.3189 N.ar    1  UNL1       -0.1048
     27 N          58.8511   89.6775   12.1034 N.ar    1  UNL1       -0.0225
     28 N          59.9603   88.6681   12.0719 N.ar    1  UNL1       -0.0425
@<TRIPOS>BOND
     1    19    20    1
     2    20    17    1
     3    17    18    2
     4    17     1    1
     5     1     2    2
     6     2    23    1
     7    23    24    1
     8    24    25   ar
     9    25    26   ar
    10    26    27   ar
    11    27    28   ar
    12     2     3    1
    13     3     4    1
    14     4     5    1
    15     4     6    2
    16     6    21    1
    17    21    22    3
    18     6     7    1
    19     7     9    1
    20     9    10   ar
    21    10    11   ar
    22    11    12   ar
    23    12    13    1
    24    12    14   ar
    25    14    15   ar
    26    15    16    1
    27     7     1    1
    28    15     9   ar
    29    28    24   ar
    30     3     8    1
@<TRIPOS>MOLECULE
*****
 28 30 0 0 0
SMALL
GASTEIGER

@<TRIPOS>ATOM
      1 C          62.7279   88.0188   11.4920 C.2     1  UNL1        0.0731
      2 C          63.3306   88.4343   12.8012 C.2     1  UNL1        0.0530
      3 N          63.7555   87.3942   13.7950 N.pl3   1  UNL1       -0.3173
      4 C          63.5776   85.9386   13.4796 C.2     1  UNL1        0.0317
      5 C          64.0024   84.8985   14.4734 C.3     1  UNL1        0.0475
      6 C          62.9749   85.5231   12.1704 C.2     1  UNL1        0.0635
      7 C          62.5500   86.5632   11.1766 C.3     1  UNL1        0.0855
      8 H          64.1511   87.6669   14.6543 H       1  UNL1        0.1517
      9 C          61.9473   86.1476    9.8674 C.ar    1  UNL1       -0.0026
     10 C          60.5322   86.5228    9.5405 C.ar    1  UNL1       -0.0005
     11 C          59.9294   86.1073    8.2313 C.ar    1  UNL1        0.0294
     12 C          60.7417   85.3165    7.2490 C.ar    1  UNL1        0.1410
     13 F          60.1389   84.9010    5.9398 F       1  UNL1       -0.2041
     14 C          62.1568   84.9413    7.5758 C.ar    1  UNL1        0.0407
     15 C          62.7595   85.3569    8.8851 C.ar    1  UNL1        0.0566
     16 CL         64.1746   84.9817    9.2120 Cl      1  UNL1       -0.0825
     17 C          62.3031   89.0589   10.4982 C.2     1  UNL1        0.3389
     18 O          63.3345   89.8944    9.7996 O.2     1  UNL1       -0.2452
     19 C          60.0966   90.3802   10.8664 C.3     1  UNL1        0.2559
     20 O          60.8468   89.2635   10.2029 O.3     1  UNL1       -0.4415
     21 C          62.7969   84.0674   11.8550 C.1     1  UNL1        0.0976
     22 N          62.6191   82.6118   11.5396 N.1     1  UNL1       -0.1911
     23 C          63.5086   89.8900   13.1166 C.3     1  UNL1        0.1716
     24 N          63.4942   90.3557   14.5424 N.ar    1  UNL1       -0.2049
     25 C          64.2265   91.5453   15.0887 C.ar    1  UNL1        0.2218
     26 N          63.9299   91.6383   16.5562 N.ar    1  UNL1       -0.1048
     27 N          63.0143   90.5062   16.9168 N.ar    1  UNL1       -0.0225
     28 N          62.7451   89.7135   15.6722 N.ar    1  UNL1       -0.0425
@<TRIPOS>BOND
     1    19    20    1
     2    20    17    1
     3    17    18    2
     4    17     1    1
     5     1     2    2
     6     2    23    1
     7    23    24    1
     8    24    25   ar
     9    25    26   ar
    10    26    27   ar
    11    27    28   ar
    12     2     3    1
    13     3     4    1
    14     4     5    1
    15     4     6    2
    16     6    21    1
    17    21    22    3
    18     6     7    1
    19     7     9    1
    20     9    10   ar
    21    10    11   ar
    22    11    12   ar
    23    12    13    1
    24    12    14   ar
    25    14    15   ar
    26    15    16    1
    27     7     1    1
    28    15     9   ar
    29    28    24   ar
    30     3     8    1
@<TRIPOS>MOLECULE
*****
 28 30 0 0 0
SMALL
GASTEIGER

@<TRIPOS>ATOM
      1 C          63.3075   85.5838   12.4307 C.2     1  UNL1        0.0731
      2 C          64.0956   85.6905   13.7025 C.2     1  UNL1        0.0530
      3 N          64.3644   87.0364   14.3076 N.pl3   1  UNL1       -0.3173
      4 C          63.8451   88.2757   13.6410 C.2     1  UNL1        0.0317
      5 C          64.1139   89.6216   14.2462 C.3     1  UNL1        0.0475
      6 C          63.0570   88.1690   12.3693 C.2     1  UNL1        0.0635
      7 C          62.7881   86.8231   11.7641 C.3     1  UNL1        0.0855
      8 H          64.8817   87.1064   15.1424 H       1  UNL1        0.1517
      9 C          62.0000   86.7165   10.4923 C.ar    1  UNL1       -0.0026
     10 C          62.6196   86.0950    9.2758 C.ar    1  UNL1       -0.0005
     11 C          61.8315   85.9884    8.0040 C.ar    1  UNL1        0.0294
     12 C          60.4237   86.5032    7.9487 C.ar    1  UNL1        0.1410
     13 F          59.6356   86.3966    6.6769 F       1  UNL1       -0.2041
     14 C          59.8040   87.1247    9.1651 C.ar    1  UNL1        0.0407
     15 C          60.5922   87.2314   10.4370 C.ar    1  UNL1        0.0566
     16 CL         59.9726   87.8528   11.6534 Cl      1  UNL1       -0.0825
     17 C          63.0387   84.2379   11.8256 C.2     1  UNL1        0.3389
     18 O          61.6855   83.6071   11.9706 O.2     1  UNL1       -0.2452
     19 C          63.8718   82.1527   10.5187 C.3     1  UNL1        0.2559
     20 O          64.1230   83.5227   11.0755 O.3     1  UNL1       -0.4415
     21 C          62.5376   89.4084   11.7026 C.1     1  UNL1        0.0976
     22 N          62.0183   90.6476   11.0359 N.1     1  UNL1       -0.1911
     23 C          64.6150   84.4511   14.3692 C.3     1  UNL1        0.1716
     24 N          63.7380   83.2401   14.4887 N.ar    1  UNL1       -0.2049
     25 C          62.3477   83.2104   15.0510 C.ar    1  UNL1        0.2218
     26 N          61.8477   81.7982   14.9768 N.ar    1  UNL1       -0.1048
     27 N          62.9291   80.9550   14.3686 N.ar    1  UNL1       -0.0225
     28 N          64.0973   81.8462   14.0670 N.ar    1  UNL1       -0.0425
@<TRIPOS>BOND
     1    19    20    1
     2    20    17    1
     3    17    18    2
     4    17     1    1
     5     1     2    2
     6     2    23    1
     7    23    24    1
     8    24    25   ar
     9    25    26   ar
    10    26    27   ar
    11    27    28   ar
    12     2     3    1
    13     3     4    1
    14     4     5    1
    15     4     6    2
    16     6    21    1
    17    21    22    3
    18     6     7    1
    19     7     9    1
    20     9    10   ar
    21    10    11   ar
    22    11    12   ar
    23    12    13    1
    24    12    14   ar
    25    14    15   ar
    26    15    16    1
    27     7     1    1
    28    15     9   ar
    29    28    24   ar
    30     3     8    1
