@<TRIPOS>MOLECULE
*****
 22 25 0 0 0
SMALL
GASTEIGER

@<TRIPOS>ATOM
      1 C          62.4473   86.8937   11.9787 C.2     1  UNL1        0.3428
      2 O          63.2884   88.0986   12.2801 O.2     1  UNL1       -0.2448
      3 C          61.8200   84.2548    5.4003 C.3     1  UNL1        0.0268
      4 C          61.8251   84.8792    6.7642 C.2     1  UNL1       -0.0380
      5 C          62.9604   84.6117    7.7073 C.2     1  UNL1       -0.0081
      6 C          62.9655   85.2360    9.0712 C.2     1  UNL1        0.0008
      7 C          61.8353   86.1278    9.4920 C.2     1  UNL1        0.0216
      8 C          61.5683   86.8777   10.7634 C.2     1  UNL1        0.0958
      9 C          60.2679   87.6086   10.6061 C.2     1  UNL1        0.1049
     10 N          59.7312   87.3105    9.2375 N.2     1  UNL1       -0.2476
     11 C          60.6999   86.3953    8.5489 C.2     1  UNL1        0.0633
     12 C          60.6949   85.7710    7.1851 C.3     1  UNL1        0.0678
     13 O          62.4853   85.7049   12.8926 O.3     1  UNL1       -0.4454
     14 C          63.4823   84.6092   12.6569 C.3     1  UNL1        0.2087
     15 C          63.0627   83.1743   12.7790 C.3     1  UNL1        0.0445
     16 C          63.2721   82.2314   11.6315 C.3     1  UNL1        0.0210
     17 C          62.8525   80.7964   11.7535 C.3     1  UNL1        0.0722
     18 N          62.2234   80.3044   13.0233 N.3     1  UNL1       -0.2727
     19 C          62.0139   81.2474   14.1708 C.3     1  UNL1        0.0722
     20 C          62.4335   82.6824   14.0488 C.3     1  UNL1        0.0210
     21 C          62.4370   81.0994   13.0033 C.3     1  UNL1        0.0722
     22 C          62.8165   82.3969   12.8929 C.3     1  UNL1        0.0210
@<TRIPOS>BOND
     1     3     4    1
     2     4     5    2
     3     5     6    1
     4     6     7    2
     5     7     8    1
     6     8     1    1
     7     1     2    2
     8     1    13    1
     9    13    14    1
    10    14    15    1
    11    15    16    1
    12    16    17    1
    13    17    18    1
    14    18    19    1
    15    19    20    1
    16    18    21    1
    17    21    22    1
    18     8     9    2
    19     9    10    1
    20    10    11    2
    21    11    12    1
    22    12     4    1
    23    11     7    1
    24    20    15    1
    25    22    15    1
@<TRIPOS>MOLECULE
*****
 22 25 0 0 0
SMALL
GASTEIGER

@<TRIPOS>ATOM
      1 C          61.6394   88.4927   11.1363 C.2     1  UNL1        0.3428
      2 O          60.3057   88.5217   11.8221 O.2     1  UNL1       -0.2448
      3 C          66.4874   91.9102   15.0669 C.3     1  UNL1        0.0268
      4 C          65.4812   91.2959   14.1393 C.2     1  UNL1       -0.0380
      5 C          64.7946   90.0173   14.5180 C.2     1  UNL1       -0.0081
      6 C          63.7885   89.4030   13.5905 C.2     1  UNL1        0.0008
      7 C          63.4690   90.0674   12.2842 C.2     1  UNL1        0.0216
      8 C          62.5290   89.6998   11.1746 C.2     1  UNL1        0.0958
      9 C          62.6346   90.7513   10.1100 C.2     1  UNL1        0.1049
     10 N          63.6400   91.7688   10.5617 N.2     1  UNL1       -0.2476
     11 C          64.1557   91.3460   11.9054 C.2     1  UNL1        0.0633
     12 C          65.1618   91.9603   12.8330 C.3     1  UNL1        0.0678
     13 O          62.0836   87.2564   10.4121 O.3     1  UNL1       -0.4454
     14 C          61.6239   85.9073   10.8797 C.3     1  UNL1        0.2087
     15 C          62.6197   84.8036   11.0803 C.3     1  UNL1        0.0445
     16 C          63.2815   84.1660    9.8948 C.3     1  UNL1        0.0210
     17 C          64.2774   83.0623   10.0952 C.3     1  UNL1        0.0722
     18 N          64.6114   82.5962   11.4813 N.3     1  UNL1       -0.2727
     19 C          63.9497   83.2339   12.6668 C.3     1  UNL1        0.0722
     20 C          62.9538   84.3376   12.4664 C.3     1  UNL1        0.0210
     21 C          64.0595   83.2043   11.4214 C.3     1  UNL1        0.0722
     22 C          63.1590   84.2023   11.2401 C.3     1  UNL1        0.0210
@<TRIPOS>BOND
     1     3     4    1
     2     4     5    2
     3     5     6    1
     4     6     7    2
     5     7     8    1
     6     8     1    1
     7     1     2    2
     8     1    13    1
     9    13    14    1
    10    14    15    1
    11    15    16    1
    12    16    17    1
    13    17    18    1
    14    18    19    1
    15    19    20    1
    16    18    21    1
    17    21    22    1
    18     8     9    2
    19     9    10    1
    20    10    11    2
    21    11    12    1
    22    12     4    1
    23    11     7    1
    24    20    15    1
    25    22    15    1
@<TRIPOS>MOLECULE
*****
 22 25 0 0 0
SMALL
GASTEIGER

@<TRIPOS>ATOM
      1 C          62.0656   89.1346   11.5522 C.2     1  UNL1        0.3428
      2 O          60.5931   89.3747   11.3977 O.2     1  UNL1       -0.2448
      3 C          67.0865   92.7005   15.1169 C.3     1  UNL1        0.0268
      4 C          66.0510   92.0413   14.2548 C.2     1  UNL1       -0.0380
      5 C          65.2855   90.8599   14.7727 C.2     1  UNL1       -0.0081
      6 C          64.2499   90.2007   13.9107 C.2     1  UNL1        0.0008
      7 C          63.9800   90.7229   12.5307 C.2     1  UNL1        0.0216
      8 C          63.0266   90.2826   11.4596 C.2     1  UNL1        0.0958
      9 C          63.2029   91.1918   10.2797 C.2     1  UNL1        0.1049
     10 N          64.2653   92.1941   10.6215 N.2     1  UNL1       -0.2476
     11 C          64.7455   91.9042   12.0127 C.2     1  UNL1        0.0633
     12 C          65.7810   92.5634   12.8748 C.3     1  UNL1        0.0678
     13 O          62.5772   87.7463   11.7994 O.3     1  UNL1       -0.4454
     14 C          61.7554   86.5602   11.3898 C.3     1  UNL1        0.2087
     15 C          61.6491   86.1856    9.9412 C.3     1  UNL1        0.0445
     16 C          62.7707   85.4468    9.2732 C.3     1  UNL1        0.0210
     17 C          62.6644   85.0722    7.8246 C.3     1  UNL1        0.0722
     18 N          61.4365   85.4365    7.0439 N.3     1  UNL1       -0.2727
     19 C          60.3149   86.1753    7.7119 C.3     1  UNL1        0.0722
     20 C          60.4211   86.5499    9.1605 C.3     1  UNL1        0.0210
     21 C          61.4490   85.6631    7.8354 C.3     1  UNL1        0.0722
     22 C          61.5452   86.0018    9.1453 C.3     1  UNL1        0.0210
@<TRIPOS>BOND
     1     3     4    1
     2     4     5    2
     3     5     6    1
     4     6     7    2
     5     7     8    1
     6     8     1    1
     7     1     2    2
     8     1    13    1
     9    13    14    1
    10    14    15    1
    11    15    16    1
    12    16    17    1
    13    17    18    1
    14    18    19    1
    15    19    20    1
    16    18    21    1
    17    21    22    1
    18     8     9    2
    19     9    10    1
    20    10    11    2
    21    11    12    1
    22    12     4    1
    23    11     7    1
    24    20    15    1
    25    22    15    1
@<TRIPOS>MOLECULE
*****
 22 25 0 0 0
SMALL
GASTEIGER

@<TRIPOS>ATOM
      1 C          61.3456   87.0766   10.6589 C.2     1  UNL1        0.3428
      2 O          60.5175   86.7170    9.4610 O.2     1  UNL1       -0.2448
      3 C          65.5030   91.2058   14.6959 C.3     1  UNL1        0.0268
      4 C          64.6034   90.4527   13.7613 C.2     1  UNL1       -0.0380
      5 C          64.3224   88.9987   13.9996 C.2     1  UNL1       -0.0081
      6 C          63.4228   88.2457   13.0649 C.2     1  UNL1        0.0008
      7 C          62.8041   88.9466   11.8919 C.2     1  UNL1        0.0216
      8 C          61.8837   88.4687   10.8083 C.2     1  UNL1        0.0958
      9 C          61.5958   89.6274    9.9002 C.2     1  UNL1        0.1049
     10 N          62.3383   90.8214   10.4226 N.2     1  UNL1       -0.2476
     11 C          63.0851   90.4006   11.6536 C.2     1  UNL1        0.0633
     12 C          63.9847   91.1537   12.5883 C.3     1  UNL1        0.0678
     13 O          61.6355   86.0439   11.7075 O.3     1  UNL1       -0.4454
     14 C          62.6719   84.9892   11.4552 C.3     1  UNL1        0.2087
     15 C          62.9335   83.9327   12.4873 C.3     1  UNL1        0.0445
     16 C          63.6184   84.2928   13.7723 C.3     1  UNL1        0.0210
     17 C          63.8801   83.2363   14.8045 C.3     1  UNL1        0.0722
     18 N          63.4569   81.8197   14.5516 N.3     1  UNL1       -0.2727
     19 C          62.7720   81.4596   13.2667 C.3     1  UNL1        0.0722
     20 C          62.5103   82.5160   12.2344 C.3     1  UNL1        0.0210
     21 C          63.2920   82.3640   13.9562 C.3     1  UNL1        0.0722
     22 C          63.0554   83.3194   13.0230 C.3     1  UNL1        0.0210
@<TRIPOS>BOND
     1     3     4    1
     2     4     5    2
     3     5     6    1
     4     6     7    2
     5     7     8    1
     6     8     1    1
     7     1     2    2
     8     1    13    1
     9    13    14    1
    10    14    15    1
    11    15    16    1
    12    16    17    1
    13    17    18    1
    14    18    19    1
    15    19    20    1
    16    18    21    1
    17    21    22    1
    18     8     9    2
    19     9    10    1
    20    10    11    2
    21    11    12    1
    22    12     4    1
    23    11     7    1
    24    20    15    1
    25    22    15    1
@<TRIPOS>MOLECULE
*****
 22 25 0 0 0
SMALL
GASTEIGER

@<TRIPOS>ATOM
      1 C          60.3253   88.8973   11.3212 C.2     1  UNL1        0.3428
      2 O          59.2160   88.5439   12.2669 O.2     1  UNL1       -0.2448
      3 C          64.1593   82.9972   10.2622 C.3     1  UNL1        0.0268
      4 C          63.3200   84.2378   10.3428 C.2     1  UNL1       -0.0380
      5 C          63.1414   84.9384   11.6570 C.2     1  UNL1       -0.0081
      6 C          62.3022   86.1790   11.7376 C.2     1  UNL1        0.0008
      7 C          61.6415   86.7191   10.5040 C.2     1  UNL1        0.0216
      8 C          60.7627   87.9133   10.2770 C.2     1  UNL1        0.0958
      9 C          60.3982   87.9508    8.8224 C.2     1  UNL1        0.1049
     10 N          61.0517   86.7797    8.1504 N.2     1  UNL1       -0.2476
     11 C          61.8201   86.0185    9.1898 C.2     1  UNL1        0.0633
     12 C          62.6594   84.7779    9.1092 C.3     1  UNL1        0.0678
     13 O          60.9972   90.2348   11.4197 O.3     1  UNL1       -0.4454
     14 C          62.4649   90.3595   11.1363 C.3     1  UNL1        0.2087
     15 C          63.4434   90.4411   12.2702 C.3     1  UNL1        0.0445
     16 C          64.3347   91.6399   12.4068 C.3     1  UNL1        0.0210
     17 C          65.3133   91.7216   13.5408 C.3     1  UNL1        0.0722
     18 N          65.4006   90.6045   14.5380 N.3     1  UNL1       -0.2727
     19 C          64.5093   89.4058   14.4013 C.3     1  UNL1        0.0722
     20 C          63.5307   89.3241   13.2674 C.3     1  UNL1        0.0210
     21 C          64.8488   90.5148   13.9335 C.3     1  UNL1        0.0722
     22 C          63.9640   90.4409   12.9081 C.3     1  UNL1        0.0210
@<TRIPOS>BOND
     1     3     4    1
     2     4     5    2
     3     5     6    1
     4     6     7    2
     5     7     8    1
     6     8     1    1
     7     1     2    2
     8     1    13    1
     9    13    14    1
    10    14    15    1
    11    15    16    1
    12    16    17    1
    13    17    18    1
    14    18    19    1
    15    19    20    1
    16    18    21    1
    17    21    22    1
    18     8     9    2
    19     9    10    1
    20    10    11    2
    21    11    12    1
    22    12     4    1
    23    11     7    1
    24    20    15    1
    25    22    15    1
@<TRIPOS>MOLECULE
*****
 22 25 0 0 0
SMALL
GASTEIGER

@<TRIPOS>ATOM
      1 C          62.4894   89.3632   11.4411 C.2     1  UNL1        0.3428
      2 O          62.9388   89.8472   10.0944 O.2     1  UNL1       -0.2448
      3 C          67.2734   93.5914   14.5824 C.3     1  UNL1        0.0268
      4 C          66.2866   92.6061   14.0298 C.2     1  UNL1       -0.0380
      5 C          65.5583   92.9092   12.7540 C.2     1  UNL1       -0.0081
      6 C          64.5715   91.9239   12.2014 C.2     1  UNL1        0.0008
      7 C          64.3130   90.6354   12.9246 C.2     1  UNL1        0.0216
      8 C          63.4043   89.4805   12.6240 C.2     1  UNL1        0.0958
      9 C          63.5709   88.4636   13.7140 C.2     1  UNL1        0.1049
     10 N          64.5828   88.9899   14.6882 N.2     1  UNL1       -0.2476
     11 C          65.0414   90.3322   14.2003 C.2     1  UNL1        0.0633
     12 C          66.0282   91.3176   14.7529 C.3     1  UNL1        0.0678
     13 O          61.1250   88.7618   11.6049 O.3     1  UNL1       -0.4454
     14 C          60.6705   87.6707   10.6814 C.3     1  UNL1        0.2087
     15 C          61.5921   86.5338   10.3528 C.3     1  UNL1        0.0445
     16 C          61.9725   85.5456   11.4152 C.3     1  UNL1        0.0210
     17 C          62.8941   84.4086   11.0868 C.3     1  UNL1        0.0722
     18 N          63.4354   84.2598    9.6958 N.3     1  UNL1       -0.2727
     19 C          63.0550   85.2480    8.6333 C.3     1  UNL1        0.0722
     20 C          62.1334   86.3850    8.9618 C.3     1  UNL1        0.0210
     21 C          62.9336   84.8991    9.8281 C.3     1  UNL1        0.0722
     22 C          62.1002   85.9272   10.1252 C.3     1  UNL1        0.0210
@<TRIPOS>BOND
     1     3     4    1
     2     4     5    2
     3     5     6    1
     4     6     7    2
     5     7     8    1
     6     8     1    1
     7     1     2    2
     8     1    13    1
     9    13    14    1
    10    14    15    1
    11    15    16    1
    12    16    17    1
    13    17    18    1
    14    18    19    1
    15    19    20    1
    16    18    21    1
    17    21    22    1
    18     8     9    2
    19     9    10    1
    20    10    11    2
    21    11    12    1
    22    12     4    1
    23    11     7    1
    24    20    15    1
    25    22    15    1
@<TRIPOS>MOLECULE
*****
 22 25 0 0 0
SMALL
GASTEIGER

@<TRIPOS>ATOM
      1 C          62.3109   88.9867   11.8077 C.2     1  UNL1        0.3428
      2 O          61.1359   89.6306   11.1332 O.2     1  UNL1       -0.2448
      3 C          66.5999   94.6412   11.2946 C.3     1  UNL1        0.0268
      4 C          65.7420   93.4356   11.5406 C.2     1  UNL1       -0.0380
      5 C          64.8649   92.9032   10.4464 C.2     1  UNL1       -0.0081
      6 C          64.0070   91.6976   10.6923 C.2     1  UNL1        0.0008
      7 C          64.0262   91.0243   12.0326 C.2     1  UNL1        0.0216
      8 C          63.2946   89.8282   12.5654 C.2     1  UNL1        0.0958
      9 C          63.7195   89.6212   13.9891 C.2     1  UNL1        0.1049
     10 N          64.7136   90.6895   14.3361 N.2     1  UNL1       -0.2476
     11 C          64.9032   91.5567   13.1268 C.2     1  UNL1        0.0633
     12 C          65.7611   92.7623   12.8809 C.3     1  UNL1        0.0678
     13 O          62.5020   87.5012   11.7244 O.3     1  UNL1       -0.4454
     14 C          61.4126   86.6351   11.1650 C.3     1  UNL1        0.2087
     15 C          61.4862   86.1618    9.7435 C.3     1  UNL1        0.0445
     16 C          60.3153   86.3571    8.8265 C.3     1  UNL1        0.0210
     17 C          60.3888   85.8839    7.4049 C.3     1  UNL1        0.0722
     18 N          61.6332   85.2154    6.9004 N.3     1  UNL1       -0.2727
     19 C          62.8041   85.0201    7.8175 C.3     1  UNL1        0.0722
     20 C          62.7306   85.4933    9.2390 C.3     1  UNL1        0.0210
     21 C          61.6399   85.4579    7.6873 C.3     1  UNL1        0.0722
     22 C          61.5734   85.8858    8.9727 C.3     1  UNL1        0.0210
@<TRIPOS>BOND
     1     3     4    1
     2     4     5    2
     3     5     6    1
     4     6     7    2
     5     7     8    1
     6     8     1    1
     7     1     2    2
     8     1    13    1
     9    13    14    1
    10    14    15    1
    11    15    16    1
    12    16    17    1
    13    17    18    1
    14    18    19    1
    15    19    20    1
    16    18    21    1
    17    21    22    1
    18     8     9    2
    19     9    10    1
    20    10    11    2
    21    11    12    1
    22    12     4    1
    23    11     7    1
    24    20    15    1
    25    22    15    1
@<TRIPOS>MOLECULE
*****
 22 25 0 0 0
SMALL
GASTEIGER

@<TRIPOS>ATOM
      1 C          63.0317   89.1415   13.1885 C.2     1  UNL1        0.3428
      2 O          63.8540   87.9014   13.3781 O.2     1  UNL1       -0.2448
      3 C          60.1117   85.8345    7.6055 C.3     1  UNL1        0.0268
      4 C          60.6861   86.6573    8.7205 C.2     1  UNL1       -0.0380
      5 C          61.3642   85.9842    9.8768 C.2     1  UNL1       -0.0081
      6 C          61.9385   86.8070   10.9918 C.2     1  UNL1        0.0008
      7 C          61.8348   88.3028   10.9504 C.2     1  UNL1        0.0216
      8 C          62.3028   89.3680   11.8972 C.2     1  UNL1        0.0958
      9 C          61.9139   90.6993   11.3260 C.2     1  UNL1        0.1049
     10 N          61.2056   90.4570   10.0262 N.2     1  UNL1       -0.2476
     11 C          61.1568   88.9758    9.7941 C.2     1  UNL1        0.0633
     12 C          60.5824   88.1531    8.6791 C.3     1  UNL1        0.0678
     13 O          62.9382   90.1551   14.2902 O.3     1  UNL1       -0.4454
     14 C          64.1810   90.6174   14.9915 C.3     1  UNL1        0.2087
     15 C          65.2766   91.2847   14.2141 C.3     1  UNL1        0.0445
     16 C          64.9753   91.9238   12.8909 C.3     1  UNL1        0.0210
     17 C          66.0709   92.5912   12.1135 C.3     1  UNL1        0.0722
     18 N          67.4678   92.6194   12.6592 N.3     1  UNL1       -0.2727
     19 C          67.7691   91.9803   13.9824 C.3     1  UNL1        0.0722
     20 C          66.6735   91.3129   14.7598 C.3     1  UNL1        0.0210
     21 C          66.9006   92.2419   13.1215 C.3     1  UNL1        0.0722
     22 C          65.9098   91.6385   13.8244 C.3     1  UNL1        0.0210
@<TRIPOS>BOND
     1     3     4    1
     2     4     5    2
     3     5     6    1
     4     6     7    2
     5     7     8    1
     6     8     1    1
     7     1     2    2
     8     1    13    1
     9    13    14    1
    10    14    15    1
    11    15    16    1
    12    16    17    1
    13    17    18    1
    14    18    19    1
    15    19    20    1
    16    18    21    1
    17    21    22    1
    18     8     9    2
    19     9    10    1
    20    10    11    2
    21    11    12    1
    22    12     4    1
    23    11     7    1
    24    20    15    1
    25    22    15    1
@<TRIPOS>MOLECULE
*****
 22 25 0 0 0
SMALL
GASTEIGER

@<TRIPOS>ATOM
      1 C          63.3426   87.0913   12.9866 C.2     1  UNL1        0.3428
      2 O          64.1730   87.4180   14.1922 O.2     1  UNL1       -0.2448
      3 C          59.2042   88.4874    7.3691 C.3     1  UNL1        0.0268
      4 C          60.1062   88.3360    8.5580 C.2     1  UNL1       -0.0380
      5 C          60.3315   86.9811    9.1607 C.2     1  UNL1       -0.0081
      6 C          61.2335   86.8297   10.3496 C.2     1  UNL1        0.0008
      7 C          61.9102   88.0332   10.9357 C.2     1  UNL1        0.0216
      8 C          62.8467   88.1922   12.0967 C.2     1  UNL1        0.0958
      9 C          63.2001   89.6455   12.2114 C.2     1  UNL1        0.1049
     10 N          62.4821   90.3846   11.1214 N.2     1  UNL1       -0.2476
     11 C          61.6849   89.3881   10.3330 C.2     1  UNL1        0.0633
     12 C          60.7829   89.5395    9.1441 C.3     1  UNL1        0.0678
     13 O          63.0081   85.6635   12.6709 O.3     1  UNL1       -0.4454
     14 C          63.6844   84.5520   13.4173 C.3     1  UNL1        0.2087
     15 C          63.1388   83.1568   13.3413 C.3     1  UNL1        0.0445
     16 C          62.2228   82.6502   14.4157 C.3     1  UNL1        0.0210
     17 C          61.6772   81.2550   14.3398 C.3     1  UNL1        0.0722
     18 N          62.0475   80.3664   13.1895 N.3     1  UNL1       -0.2727
     19 C          62.9635   80.8731   12.1151 C.3     1  UNL1        0.0722
     20 C          63.5091   82.2683   12.1910 C.3     1  UNL1        0.0210
     21 C          62.3715   81.1234   13.1878 C.3     1  UNL1        0.0722
     22 C          62.8648   82.3850   13.2565 C.3     1  UNL1        0.0210
@<TRIPOS>BOND
     1     3     4    1
     2     4     5    2
     3     5     6    1
     4     6     7    2
     5     7     8    1
     6     8     1    1
     7     1     2    2
     8     1    13    1
     9    13    14    1
    10    14    15    1
    11    15    16    1
    12    16    17    1
    13    17    18    1
    14    18    19    1
    15    19    20    1
    16    18    21    1
    17    21    22    1
    18     8     9    2
    19     9    10    1
    20    10    11    2
    21    11    12    1
    22    12     4    1
    23    11     7    1
    24    20    15    1
    25    22    15    1
