@<TRIPOS>MOLECULE
*****
 36 40 0 0 0
SMALL
GASTEIGER

@<TRIPOS>ATOM
      1 N          63.0060   90.2727   11.4128 N.ar    1  UNL1       -0.2757
      2 C          63.5510   91.3379   10.5082 C.ar    1  UNL1        0.3342
      3 O          63.1960   91.3380    9.0507 O.2     1  UNL1       -0.2462
      4 N          64.4510   92.4029   11.0610 N.ar    1  UNL1       -0.2467
      5 C          64.9961   93.4682   10.1564 C.3     1  UNL1        0.1382
      6 C          64.8061   92.4028   12.5183 C.ar    1  UNL1        0.2663
      7 O          65.7061   93.4679   13.0711 O.2     1  UNL1       -0.2668
      8 C          64.2611   91.3376   13.4229 C.ar    1  UNL1        0.0829
      9 C          64.4349   91.0818   14.8907 C.ar    1  UNL1        0.0624
     10 C          63.6422   89.8586   15.2450 C.ar    1  UNL1        0.0176
     11 S          62.9785   89.3584   13.9963 S.2     1  UNL1       -0.0734
     12 C          63.3610   90.2725   12.8702 C.ar    1  UNL1        0.0982
     13 C          65.2569   91.9046   15.8378 C.2     1  UNL1        0.2495
     14 O          64.6329   92.4624   17.0826 O.2     1  UNL1       -0.2699
     15 N          66.7030   92.1696   15.5402 N.am    1  UNL1       -0.2735
     16 C          67.6455   92.9703   16.3891 C.3     1  UNL1        0.0964
     17 C          68.9855   92.9761   15.7150 C.3     1  UNL1        0.0525
     18 C          68.8712   92.1790   14.4495 C.3     1  UNL1        0.1320
     19 O          69.9738   91.9249   13.4649 O.3     1  UNL1       -0.3827
     20 C          67.4605   91.6806   14.3415 C.3     1  UNL1        0.1228
     21 H          70.7861   92.3583   13.7703 H       1  UNL1        0.2104
     22 C          62.1059   89.2076   10.8599 C.3     1  UNL1        0.1109
     23 C          60.2094   89.2321    9.0844 C.3     1  UNL1        0.0020
     24 C          60.6979   89.5448   10.4678 C.3     1  UNL1        0.0228
     25 C          59.7784   90.1945   11.4589 C.3     1  UNL1        0.0020
     26 C          63.5325   89.2435   16.6087 C.3     1  UNL1        0.0611
     27 C          63.1402   87.8029   16.7524 C.ar    1  UNL1        0.0048
     28 C          62.1054   87.2604   17.6931 C.ar    1  UNL1        0.0966
     29 N          62.0394   85.7741   17.5027 N.ar    1  UNL1       -0.2273
     30 C          63.0335   85.3978   16.4443 C.ar    1  UNL1        0.1402
     31 N          63.4071   84.0755   15.8429 N.ar    1  UNL1       -0.3374
     32 C          64.4609   84.0069   14.7777 C.ar    1  UNL1        0.0735
     33 C          65.1413   85.2608   14.3140 C.ar    1  UNL1        0.0186
     34 C          64.7677   86.5832   14.9154 C.ar    1  UNL1        0.0043
     35 C          63.7138   86.6516   15.9806 C.ar    1  UNL1        0.0318
     36 H          62.9605   83.2525   16.1472 H       1  UNL1        0.1674
@<TRIPOS>BOND
     1    23    24    1
     2    24    25    1
     3    24    22    1
     4    22     1    1
     5     1     2   ar
     6     2     3    2
     7     2     4   ar
     8     4     5    1
     9     4     6   ar
    10     6     7    2
    11     6     8   ar
    12     8     9   ar
    13     9    13    1
    14    13    14    2
    15    13    15   am
    16    15    16    1
    17    16    17    1
    18    17    18    1
    19    18    19    1
    20    18    20    1
    21     9    10   ar
    22    10    26    1
    23    26    27    1
    24    27    28   ar
    25    28    29   ar
    26    29    30   ar
    27    30    31   ar
    28    31    32   ar
    29    32    33   ar
    30    33    34   ar
    31    34    35   ar
    32    10    11   ar
    33    11    12   ar
    34    12     1   ar
    35    12     8   ar
    36    20    15    1
    37    35    27   ar
    38    35    30    1
    39    19    21    1
    40    31    36    1
@<TRIPOS>MOLECULE
*****
 36 40 0 0 0
SMALL
GASTEIGER

@<TRIPOS>ATOM
      1 N          62.8952   87.5595   11.5083 N.ar    1  UNL1       -0.2757
      2 C          62.8592   86.4428   12.5092 C.ar    1  UNL1        0.3342
      3 O          62.3829   85.0814   12.0970 O.2     1  UNL1       -0.2462
      4 N          63.2994   86.6874   13.9220 N.ar    1  UNL1       -0.2467
      5 C          63.2633   85.5706   14.9229 C.3     1  UNL1        0.1382
      6 C          63.7757   88.0487   14.3342 C.ar    1  UNL1        0.2663
      7 O          64.2159   88.2933   15.7471 O.2     1  UNL1       -0.2668
      8 C          63.8117   89.1655   13.3334 C.ar    1  UNL1        0.0829
      9 C          64.2291   90.6018   13.4468 C.ar    1  UNL1        0.0624
     10 C          64.0468   91.2448   12.1039 C.ar    1  UNL1        0.0176
     11 S          63.5168   90.2060   11.1606 S.2     1  UNL1       -0.0734
     12 C          63.3715   88.9209   11.9205 C.ar    1  UNL1        0.0982
     13 C          64.7392   91.2765   14.6855 C.2     1  UNL1        0.2495
     14 O          63.8070   91.5504   15.8284 O.2     1  UNL1       -0.2699
     15 N          66.1814   91.6775   14.7814 N.am    1  UNL1       -0.2735
     16 C          66.8320   92.3563   15.9502 C.3     1  UNL1        0.0964
     17 C          68.2789   92.5684   15.6165 C.3     1  UNL1        0.0525
     18 C          68.5227   92.0207   14.2415 C.3     1  UNL1        0.1320
     19 O          69.8326   92.0232   13.5110 O.3     1  UNL1       -0.3827
     20 C          67.2263   91.4701   13.7254 C.3     1  UNL1        0.1228
     21 H          70.5116   92.4375   14.0661 H       1  UNL1        0.2104
     22 C          62.4550   87.3149   10.0954 C.3     1  UNL1        0.1109
     23 C          60.4769   86.6270    8.5579 C.3     1  UNL1        0.0020
     24 C          60.9996   87.3884    9.7399 C.3     1  UNL1        0.0228
     25 C          60.0669   88.2232   10.5663 C.3     1  UNL1        0.0020
     26 C          64.3426   92.6755   11.7641 C.3     1  UNL1        0.0611
     27 C          65.5925   93.0248   11.0119 C.ar    1  UNL1        0.0048
     28 C          66.7352   92.0973   10.7218 C.ar    1  UNL1        0.0966
     29 N          67.7681   92.8621    9.9484 N.ar    1  UNL1       -0.2273
     30 C          67.2638   94.2622    9.7604 C.ar    1  UNL1        0.1402
     31 N          67.8552   95.4585    9.0756 N.ar    1  UNL1       -0.3374
     32 C          67.1021   96.7554    9.0481 C.ar    1  UNL1        0.0735
     33 C          65.7575   96.8560    9.7054 C.ar    1  UNL1        0.0186
     34 C          65.1661   95.6596   10.3902 C.ar    1  UNL1        0.0043
     35 C          65.9193   94.3627   10.4177 C.ar    1  UNL1        0.0318
     36 H          68.7377   95.3925    8.6442 H       1  UNL1        0.1674
@<TRIPOS>BOND
     1    23    24    1
     2    24    25    1
     3    24    22    1
     4    22     1    1
     5     1     2   ar
     6     2     3    2
     7     2     4   ar
     8     4     5    1
     9     4     6   ar
    10     6     7    2
    11     6     8   ar
    12     8     9   ar
    13     9    13    1
    14    13    14    2
    15    13    15   am
    16    15    16    1
    17    16    17    1
    18    17    18    1
    19    18    19    1
    20    18    20    1
    21     9    10   ar
    22    10    26    1
    23    26    27    1
    24    27    28   ar
    25    28    29   ar
    26    29    30   ar
    27    30    31   ar
    28    31    32   ar
    29    32    33   ar
    30    33    34   ar
    31    34    35   ar
    32    10    11   ar
    33    11    12   ar
    34    12     1   ar
    35    12     8   ar
    36    20    15    1
    37    35    27   ar
    38    35    30    1
    39    19    21    1
    40    31    36    1
@<TRIPOS>MOLECULE
*****
 36 40 0 0 0
SMALL
GASTEIGER

@<TRIPOS>ATOM
      1 N          65.8372   92.2654   14.0372 N.ar    1  UNL1       -0.2757
      2 C          65.8364   93.1063   12.7950 C.ar    1  UNL1        0.3342
      3 O          66.5876   94.4045   12.7678 O.2     1  UNL1       -0.2462
      4 N          65.0847   92.6492   11.5802 N.ar    1  UNL1       -0.2467
      5 C          65.0840   93.4901   10.3381 C.3     1  UNL1        0.1382
      6 C          64.3336   91.3511   11.6075 C.ar    1  UNL1        0.2663
      7 O          63.5819   90.8939   10.3926 O.2     1  UNL1       -0.2668
      8 C          64.3343   90.5101   12.8496 C.ar    1  UNL1        0.0829
      9 C          63.6900   89.1943   13.1712 C.ar    1  UNL1        0.0624
     10 C          64.0435   88.8383   14.5848 C.ar    1  UNL1        0.0176
     11 S          64.9064   89.9340   15.1369 S.2     1  UNL1       -0.0734
     12 C          65.0861   90.9673   14.0644 C.ar    1  UNL1        0.0982
     13 C          62.8411   88.3778   12.2423 C.2     1  UNL1        0.2495
     14 O          63.3213   87.0374   11.7706 O.2     1  UNL1       -0.2699
     15 N          61.5120   88.9018   11.7851 N.am    1  UNL1       -0.2735
     16 C          60.5587   88.2023   10.8622 C.3     1  UNL1        0.0964
     17 C          59.3604   89.0855   10.6773 C.3     1  UNL1        0.0525
     18 C          59.5733   90.3308   11.4859 C.3     1  UNL1        0.1320
     19 O          58.6231   91.4867   11.5913 O.3     1  UNL1       -0.3827
     20 C          60.9030   90.2173   12.1705 C.3     1  UNL1        0.1228
     21 H          57.8371   91.3093   11.0513 H       1  UNL1        0.2104
     22 C          66.5890   92.7227   15.2520 C.3     1  UNL1        0.1109
     23 C          68.7765   93.8753   16.0493 C.3     1  UNL1        0.0020
     24 C          68.0832   92.8458   15.2070 C.3     1  UNL1        0.0228
     25 C          68.8841   91.9394   14.3199 C.3     1  UNL1        0.0020
     26 C          63.6103   87.6033   15.3176 C.3     1  UNL1        0.0611
     27 C          64.2604   86.2855   15.0164 C.ar    1  UNL1        0.0048
     28 C          65.7283   86.0526   14.8129 C.ar    1  UNL1        0.0966
     29 N          65.9319   84.5924   14.5365 N.ar    1  UNL1       -0.2273
     30 C          64.5901   83.9229   14.5691 C.ar    1  UNL1        0.1402
     31 N          64.1754   82.4956   14.3671 N.ar    1  UNL1       -0.3374
     32 C          62.7277   82.1147   14.4616 C.ar    1  UNL1        0.0735
     33 C          61.6946   83.1611   14.7582 C.ar    1  UNL1        0.0186
     34 C          62.1093   84.5884   14.9602 C.ar    1  UNL1        0.0043
     35 C          63.5571   84.9692   14.8657 C.ar    1  UNL1        0.0318
     36 H          64.8534   81.8089   14.1724 H       1  UNL1        0.1674
@<TRIPOS>BOND
     1    23    24    1
     2    24    25    1
     3    24    22    1
     4    22     1    1
     5     1     2   ar
     6     2     3    2
     7     2     4   ar
     8     4     5    1
     9     4     6   ar
    10     6     7    2
    11     6     8   ar
    12     8     9   ar
    13     9    13    1
    14    13    14    2
    15    13    15   am
    16    15    16    1
    17    16    17    1
    18    17    18    1
    19    18    19    1
    20    18    20    1
    21     9    10   ar
    22    10    26    1
    23    26    27    1
    24    27    28   ar
    25    28    29   ar
    26    29    30   ar
    27    30    31   ar
    28    31    32   ar
    29    32    33   ar
    30    33    34   ar
    31    34    35   ar
    32    10    11   ar
    33    11    12   ar
    34    12     1   ar
    35    12     8   ar
    36    20    15    1
    37    35    27   ar
    38    35    30    1
    39    19    21    1
    40    31    36    1
@<TRIPOS>MOLECULE
*****
 36 40 0 0 0
SMALL
GASTEIGER

@<TRIPOS>ATOM
      1 N          61.3119   87.7997   10.1108 N.ar    1  UNL1       -0.2757
      2 C          60.9245   87.3248    8.7417 C.ar    1  UNL1        0.3342
      3 O          60.1316   88.2184    7.8344 O.2     1  UNL1       -0.2462
      4 N          61.3299   85.9566    8.2797 N.ar    1  UNL1       -0.2467
      5 C          60.9424   85.4818    6.9106 C.3     1  UNL1        0.1382
      6 C          62.1228   85.0631    9.1869 C.ar    1  UNL1        0.2663
      7 O          62.5282   83.6948    8.7249 O.2     1  UNL1       -0.2668
      8 C          62.5102   85.5378   10.5560 C.ar    1  UNL1        0.0829
      9 C          63.2836   84.8851   11.6631 C.ar    1  UNL1        0.0624
     10 C          63.3562   85.8500   12.8093 C.ar    1  UNL1        0.0176
     11 S          62.6276   87.0991   12.4106 S.2     1  UNL1       -0.0734
     12 C          62.1048   86.9061   11.0179 C.ar    1  UNL1        0.0982
     13 C          63.8798   83.5090   11.6299 C.2     1  UNL1        0.2495
     14 O          65.1345   83.2540   10.8484 O.2     1  UNL1       -0.2699
     15 N          63.2213   82.3881   12.3782 N.am    1  UNL1       -0.2735
     16 C          63.6988   80.9674   12.4375 C.3     1  UNL1        0.0964
     17 C          62.7424   80.1923   13.2945 C.3     1  UNL1        0.0525
     18 C          61.6737   81.1340   13.7649 C.3     1  UNL1        0.1320
     19 O          60.5130   80.7807   14.6467 O.3     1  UNL1       -0.3827
     20 C          61.9698   82.4911   13.1985 C.3     1  UNL1        0.1228
     21 H          60.5539   79.8383   14.8729 H       1  UNL1        0.2104
     22 C          60.9065   89.1680   10.5727 C.3     1  UNL1        0.1109
     23 C          62.8154   90.7437    9.7836 C.3     1  UNL1        0.0020
     24 C          61.9539   90.1959   10.8826 C.3     1  UNL1        0.0228
     25 C          62.1400   90.6761   12.2915 C.3     1  UNL1        0.0020
     26 C          64.0377   85.6082   14.1235 C.3     1  UNL1        0.0611
     27 C          63.6300   86.3926   15.3353 C.ar    1  UNL1        0.0048
     28 C          63.0254   85.8299   16.5875 C.ar    1  UNL1        0.0966
     29 N          62.7770   86.9669   17.5338 N.ar    1  UNL1       -0.2273
     30 C          63.2280   88.2323   16.8664 C.ar    1  UNL1        0.1402
     31 N          63.2267   89.6619   17.3204 N.ar    1  UNL1       -0.3374
     32 C          63.7526   90.7366   16.4157 C.ar    1  UNL1        0.0735
     33 C          64.2798   90.3816   15.0570 C.ar    1  UNL1        0.0186
     34 C          64.2810   88.9520   14.6030 C.ar    1  UNL1        0.0043
     35 C          63.7551   87.8774   15.5078 C.ar    1  UNL1        0.0318
     36 H          62.8807   89.8949   18.2122 H       1  UNL1        0.1674
@<TRIPOS>BOND
     1    23    24    1
     2    24    25    1
     3    24    22    1
     4    22     1    1
     5     1     2   ar
     6     2     3    2
     7     2     4   ar
     8     4     5    1
     9     4     6   ar
    10     6     7    2
    11     6     8   ar
    12     8     9   ar
    13     9    13    1
    14    13    14    2
    15    13    15   am
    16    15    16    1
    17    16    17    1
    18    17    18    1
    19    18    19    1
    20    18    20    1
    21     9    10   ar
    22    10    26    1
    23    26    27    1
    24    27    28   ar
    25    28    29   ar
    26    29    30   ar
    27    30    31   ar
    28    31    32   ar
    29    32    33   ar
    30    33    34   ar
    31    34    35   ar
    32    10    11   ar
    33    11    12   ar
    34    12     1   ar
    35    12     8   ar
    36    20    15    1
    37    35    27   ar
    38    35    30    1
    39    19    21    1
    40    31    36    1
@<TRIPOS>MOLECULE
*****
 36 40 0 0 0
SMALL
GASTEIGER

@<TRIPOS>ATOM
      1 N          66.1841   91.6676   13.1642 N.ar    1  UNL1       -0.2757
      2 C          66.0769   92.7500   12.1312 C.ar    1  UNL1        0.3342
      3 O          67.1450   93.7985   12.0300 O.2     1  UNL1       -0.2462
      4 N          64.9019   92.7840   11.1996 N.ar    1  UNL1       -0.2467
      5 C          64.7948   93.8665   10.1666 C.3     1  UNL1        0.1382
      6 C          63.8339   91.7357   11.3008 C.ar    1  UNL1        0.2663
      7 O          62.6588   91.7697   10.3692 O.2     1  UNL1       -0.2668
      8 C          63.9410   90.6533   12.3338 C.ar    1  UNL1        0.0829
      9 C          63.0502   89.4938   12.6686 C.ar    1  UNL1        0.0624
     10 C          63.6748   88.7432   13.8073 C.ar    1  UNL1        0.0176
     11 S          64.9516   89.4388   14.1762 S.2     1  UNL1       -0.0734
     12 C          65.1161   90.6193   13.2655 C.ar    1  UNL1        0.0982
     13 C          61.7612   89.1460   11.9849 C.2     1  UNL1        0.2495
     14 O          60.4786   89.7803   12.4350 O.2     1  UNL1       -0.2699
     15 N          61.7548   88.1639   10.8512 N.am    1  UNL1       -0.2735
     16 C          60.5499   87.7204   10.0756 C.3     1  UNL1        0.0964
     17 C          61.0026   86.7353    9.0390 C.3     1  UNL1        0.0525
     18 C          62.4873   86.5699    9.1739 C.3     1  UNL1        0.1320
     19 O          63.3548   85.6782    8.3359 O.3     1  UNL1       -0.3827
     20 C          62.9522   87.4528   10.2938 C.3     1  UNL1        0.1228
     21 H          62.8071   85.2156    7.6825 H       1  UNL1        0.2104
     22 C          67.3592   91.6336   14.0959 C.3     1  UNL1        0.1109
     23 C          66.1081   92.6565   16.1301 C.3     1  UNL1        0.0020
     24 C          67.3645   92.4892   15.3280 C.3     1  UNL1        0.0228
     25 C          68.6260   93.1773   15.7579 C.3     1  UNL1        0.0020
     26 C          63.1200   87.5130   14.4621 C.3     1  UNL1        0.0611
     27 C          63.8671   86.2152   14.3750 C.ar    1  UNL1        0.0048
     28 C          65.0276   85.8066   15.2331 C.ar    1  UNL1        0.0966
     29 N          65.4626   84.4370   14.8029 N.ar    1  UNL1       -0.2273
     30 C          64.5709   83.9992   13.6790 C.ar    1  UNL1        0.1402
     31 N          64.5295   82.7417   12.8623 N.ar    1  UNL1       -0.3374
     32 C          63.5020   82.5832   11.7810 C.ar    1  UNL1        0.0735
     33 C          62.5159   83.6822   11.5166 C.ar    1  UNL1        0.0186
     34 C          62.5573   84.9397   12.3333 C.ar    1  UNL1        0.0043
     35 C          63.5849   85.0981   13.4146 C.ar    1  UNL1        0.0318
     36 H          65.1767   82.0205   13.0359 H       1  UNL1        0.1674
@<TRIPOS>BOND
     1    23    24    1
     2    24    25    1
     3    24    22    1
     4    22     1    1
     5     1     2   ar
     6     2     3    2
     7     2     4   ar
     8     4     5    1
     9     4     6   ar
    10     6     7    2
    11     6     8   ar
    12     8     9   ar
    13     9    13    1
    14    13    14    2
    15    13    15   am
    16    15    16    1
    17    16    17    1
    18    17    18    1
    19    18    19    1
    20    18    20    1
    21     9    10   ar
    22    10    26    1
    23    26    27    1
    24    27    28   ar
    25    28    29   ar
    26    29    30   ar
    27    30    31   ar
    28    31    32   ar
    29    32    33   ar
    30    33    34   ar
    31    34    35   ar
    32    10    11   ar
    33    11    12   ar
    34    12     1   ar
    35    12     8   ar
    36    20    15    1
    37    35    27   ar
    38    35    30    1
    39    19    21    1
    40    31    36    1
@<TRIPOS>MOLECULE
*****
 36 40 0 0 0
SMALL
GASTEIGER

@<TRIPOS>ATOM
      1 N          58.2668   94.1089   -3.4034 N.ar    1  UNL1       -0.2757
      2 C          57.9589   93.8429   -4.8472 C.ar    1  UNL1        0.3342
      3 O          56.5855   93.3947   -5.2510 O.2     1  UNL1       -0.2462
      4 N          59.0243   94.0251   -5.8872 N.ar    1  UNL1       -0.2467
      5 C          58.7164   93.7590   -7.3310 C.3     1  UNL1        0.1382
      6 C          60.3977   94.4732   -5.4835 C.ar    1  UNL1        0.2663
      7 O          61.4631   94.6554   -6.5236 O.2     1  UNL1       -0.2668
      8 C          60.7056   94.7393   -4.0398 C.ar    1  UNL1        0.0829
      9 C          61.9581   95.1877   -3.3467 C.ar    1  UNL1        0.0624
     10 C          61.6666   95.2827   -1.8784 C.ar    1  UNL1        0.0176
     11 S          60.2341   94.8930   -1.6639 S.2     1  UNL1       -0.0734
     12 C          59.6402   94.5571   -2.9997 C.ar    1  UNL1        0.0982
     13 C          63.2713   95.4884   -4.0062 C.2     1  UNL1        0.2495
     14 O          63.8777   96.8547   -3.8815 O.2     1  UNL1       -0.2699
     15 N          63.9782   94.4228   -4.7904 N.am    1  UNL1       -0.2735
     16 C          65.2903   94.5751   -5.5011 C.3     1  UNL1        0.0964
     17 C          65.6200   93.2643   -6.1514 C.3     1  UNL1        0.0525
     18 C          64.5117   92.3018   -5.8427 C.3     1  UNL1        0.1320
     19 O          64.4321   90.8741   -6.2956 O.3     1  UNL1       -0.3827
     20 C          63.4970   93.0179   -5.0015 C.3     1  UNL1        0.1228
     21 H          65.2150   90.6593   -6.8265 H       1  UNL1        0.2104
     22 C          57.2013   93.9268   -2.3634 C.3     1  UNL1        0.1109
     23 C          55.9450   91.6589   -2.1956 C.3     1  UNL1        0.0020
     24 C          57.0142   92.5909   -1.7074 C.3     1  UNL1        0.0228
     25 C          57.8961   92.1870   -0.5633 C.3     1  UNL1        0.0020
     26 C          62.6373   95.6951   -0.8118 C.3     1  UNL1        0.0611
     27 C          63.4366   94.6560   -0.0827 C.ar    1  UNL1        0.0048
     28 C          64.8854   94.3394   -0.3082 C.ar    1  UNL1        0.0966
     29 N          65.2717   93.2389    0.6349 N.ar    1  UNL1       -0.2273
     30 C          64.0616   92.8753    1.4434 C.ar    1  UNL1        0.1402
     31 N          63.8460   91.8598    2.5261 N.ar    1  UNL1       -0.3374
     32 C          62.4962   91.7202    3.1653 C.ar    1  UNL1        0.0735
     33 C          61.3621   92.5961    2.7218 C.ar    1  UNL1        0.0186
     34 C          61.5777   93.6116    1.6391 C.ar    1  UNL1        0.0043
     35 C          62.9276   93.7511    0.9999 C.ar    1  UNL1        0.0318
     36 H          64.5903   91.2850    2.8172 H       1  UNL1        0.1674
@<TRIPOS>BOND
     1    23    24    1
     2    24    25    1
     3    24    22    1
     4    22     1    1
     5     1     2   ar
     6     2     3    2
     7     2     4   ar
     8     4     5    1
     9     4     6   ar
    10     6     7    2
    11     6     8   ar
    12     8     9   ar
    13     9    13    1
    14    13    14    2
    15    13    15   am
    16    15    16    1
    17    16    17    1
    18    17    18    1
    19    18    19    1
    20    18    20    1
    21     9    10   ar
    22    10    26    1
    23    26    27    1
    24    27    28   ar
    25    28    29   ar
    26    29    30   ar
    27    30    31   ar
    28    31    32   ar
    29    32    33   ar
    30    33    34   ar
    31    34    35   ar
    32    10    11   ar
    33    11    12   ar
    34    12     1   ar
    35    12     8   ar
    36    20    15    1
    37    35    27   ar
    38    35    30    1
    39    19    21    1
    40    31    36    1
