@<TRIPOS>MOLECULE
*****
 37 41 0 0 0
SMALL
GASTEIGER

@<TRIPOS>ATOM
      1 C          63.2126   86.9423   13.4062 C.3     1  UNL1        0.0980
      2 C          63.4790   89.5247   13.3064 C.2     1  UNL1        0.2475
      3 O          62.4893   89.6701   14.4241 O.2     1  UNL1       -0.2701
      4 N          63.8406   88.1608   12.7975 N.am    1  UNL1       -0.3002
      5 H          64.4902   88.0655   12.0639 H       1  UNL1        0.1498
      6 C          65.3634   93.1803   11.4801 C.ar    1  UNL1        0.0863
      7 C          65.7299   92.7645   12.8739 C.ar    1  UNL1        0.0308
      8 C          65.1018   91.5460   13.4826 C.ar    1  UNL1        0.0643
      9 CL         65.4684   91.1301   14.8765 Cl      1  UNL1       -0.0820
     10 C          64.1071   90.7433   12.6976 C.ar    1  UNL1        0.0745
     11 C          63.7406   91.1591   11.3038 C.ar    1  UNL1        0.0643
     12 CL         62.7459   90.3564   10.5187 Cl      1  UNL1       -0.0820
     13 C          64.3687   92.3776   10.6950 C.ar    1  UNL1        0.0308
     14 C          67.6762   96.4514    8.0403 C.3     1  UNL1        0.0756
     15 C          67.0546   95.9024    9.2902 C.ar    1  UNL1        0.1613
     16 N          66.8616   96.6457   10.5787 N.ar    1  UNL1       -0.2073
     17 C          66.2046   95.7165   11.5559 C.ar    1  UNL1        0.2013
     18 N          65.9915   94.3989   10.8713 N.ar    1  UNL1       -0.2083
     19 N          66.5169   94.5139    9.4710 N.ar    1  UNL1       -0.1487
     20 C          62.6847   85.8503   12.5237 C.3     1  UNL1        0.0606
     21 C          62.1615   86.1778   11.1566 C.2     1  UNL1       -0.0304
     22 C          62.6097   85.3768    9.9702 C.2     1  UNL1       -0.0038
     23 C          62.0864   85.7044    8.6032 C.2     1  UNL1        0.0495
     24 C          61.1150   86.8330    8.4225 C.2     1  UNL1        0.2317
     25 N          60.4328   87.3850    7.2059 N.2     1  UNL1       -0.0350
     26 C          59.5630   88.5272    7.6404 C.2     1  UNL1        0.3518
     27 C          58.7001   89.3679    6.7468 C.3     1  UNL1        0.1367
     28 N          59.7077   88.6811    9.1255 N.2     1  UNL1       -0.0389
     29 C          60.6668   87.6340    9.6088 C.2     1  UNL1        0.2171
     30 C          61.1901   87.3064   10.9759 C.3     1  UNL1        0.1001
     31 C          62.6800   84.4307   13.0083 C.ar    1  UNL1       -0.0148
     32 C          62.5943   84.1400   14.4774 C.ar    1  UNL1       -0.0038
     33 C          62.5896   82.7204   14.9619 C.ar    1  UNL1        0.0020
     34 C          62.6707   81.5916   13.9775 C.ar    1  UNL1        0.0296
     35 C          62.7564   81.8823   12.5084 C.ar    1  UNL1        0.1398
     36 F          62.8375   80.7535   11.5239 F       1  UNL1       -0.2042
     37 C          62.7611   83.3019   12.0238 C.ar    1  UNL1        0.0257
@<TRIPOS>BOND
     1    14    15    1
     2    15    16   ar
     3    16    17   ar
     4    17    18   ar
     5    18     6    1
     6     6     7   ar
     7     7     8   ar
     8     8     9    1
     9     8    10   ar
    10    10     2    1
    11     2     3    2
    12     2     4   am
    13     4     1    1
    14    20     1    1
    15    20    31    1
    16    31    32   ar
    17    32    33   ar
    18    33    34   ar
    19    34    35   ar
    20    35    36    1
    21    35    37   ar
    22    20    21    1
    23    21    22    2
    24    22    23    1
    25    23    24    2
    26    24    25    1
    27    25    26    2
    28    26    27    1
    29    26    28    1
    30    28    29    2
    31    29    30    1
    32    10    11   ar
    33    11    12    1
    34    11    13   ar
    35    18    19   ar
    36    19    15   ar
    37    13     6   ar
    38    37    31   ar
    39    30    21    1
    40    29    24    1
    41     4     5    1
@<TRIPOS>MOLECULE
*****
 37 41 0 0 0
SMALL
GASTEIGER

@<TRIPOS>ATOM
      1 C          62.9573   87.0034   13.2697 C.3     1  UNL1        0.0980
      2 C          63.4047   89.5625   13.2467 C.2     1  UNL1        0.2475
      3 O          62.5532   89.7224   14.4711 O.2     1  UNL1       -0.2701
      4 N          63.6067   88.2030   12.6459 N.am    1  UNL1       -0.3002
      5 H          64.1656   88.0981   11.8423 H       1  UNL1        0.1498
      6 C          65.3529   93.1614   11.3751 C.ar    1  UNL1        0.0863
      7 C          64.3268   92.3805   10.6087 C.ar    1  UNL1        0.0308
      8 C          63.6774   91.1809   11.2326 C.ar    1  UNL1        0.0643
      9 CL         62.6512   90.4000   10.4662 Cl      1  UNL1       -0.0820
     10 C          64.0541   90.7622   12.6228 C.ar    1  UNL1        0.0745
     11 C          65.0802   91.5430   13.3892 C.ar    1  UNL1        0.0643
     12 CL         65.4569   91.1243   14.7794 Cl      1  UNL1       -0.0820
     13 C          65.7296   92.7426   12.7653 C.ar    1  UNL1        0.0308
     14 C          67.6645   96.3696    7.8758 C.3     1  UNL1        0.0756
     15 C          67.0648   95.8357    9.1429 C.ar    1  UNL1        0.1613
     16 N          66.9385   96.5786   10.4399 N.ar    1  UNL1       -0.2073
     17 C          66.2818   95.6672   11.4339 C.ar    1  UNL1        0.2013
     18 N          66.0023   94.3610   10.7513 N.ar    1  UNL1       -0.2083
     19 N          66.4863   94.4652    9.3353 N.ar    1  UNL1       -0.1487
     20 C          62.8065   85.7368   12.4804 C.3     1  UNL1        0.0606
     21 C          62.2526   85.7829   11.0871 C.2     1  UNL1       -0.0304
     22 C          61.0276   86.5972   10.7935 C.2     1  UNL1       -0.0038
     23 C          60.4738   86.6432    9.4002 C.2     1  UNL1        0.0495
     24 C          61.1451   85.8750    8.3006 C.2     1  UNL1        0.2317
     25 N          60.8310   85.7302    6.8409 N.2     1  UNL1       -0.0350
     26 C          61.8620   84.8264    6.2325 C.2     1  UNL1        0.3518
     27 C          61.9298   84.4094    4.7931 C.3     1  UNL1        0.1367
     28 N          62.8132   84.4127    7.3160 N.2     1  UNL1       -0.0389
     29 C          62.3701   85.0608    8.5941 C.2     1  UNL1        0.2171
     30 C          62.9239   85.0147    9.9874 C.3     1  UNL1        0.1001
     31 C          63.2093   84.4242   13.0842 C.ar    1  UNL1       -0.0148
     32 C          64.0322   84.3966   14.3381 C.ar    1  UNL1       -0.0038
     33 C          64.4351   83.0839   14.9420 C.ar    1  UNL1        0.0020
     34 C          64.0151   81.7989   14.2920 C.ar    1  UNL1        0.0296
     35 C          63.1923   81.8266   13.0381 C.ar    1  UNL1        0.1398
     36 F          62.7724   80.5416   12.3881 F       1  UNL1       -0.2042
     37 C          62.7894   83.1392   12.4342 C.ar    1  UNL1        0.0257
@<TRIPOS>BOND
     1    14    15    1
     2    15    16   ar
     3    16    17   ar
     4    17    18   ar
     5    18     6    1
     6     6     7   ar
     7     7     8   ar
     8     8     9    1
     9     8    10   ar
    10    10     2    1
    11     2     3    2
    12     2     4   am
    13     4     1    1
    14    20     1    1
    15    20    31    1
    16    31    32   ar
    17    32    33   ar
    18    33    34   ar
    19    34    35   ar
    20    35    36    1
    21    35    37   ar
    22    20    21    1
    23    21    22    2
    24    22    23    1
    25    23    24    2
    26    24    25    1
    27    25    26    2
    28    26    27    1
    29    26    28    1
    30    28    29    2
    31    29    30    1
    32    10    11   ar
    33    11    12    1
    34    11    13   ar
    35    18    19   ar
    36    19    15   ar
    37    13     6   ar
    38    37    31   ar
    39    30    21    1
    40    29    24    1
    41     4     5    1
@<TRIPOS>MOLECULE
*****
 37 41 0 0 0
SMALL
GASTEIGER

@<TRIPOS>ATOM
      1 C          62.9860   86.9813   13.3094 C.3     1  UNL1        0.0980
      2 C          63.3389   89.5535   13.2118 C.2     1  UNL1        0.2475
      3 O          62.3845   89.7279   14.3557 O.2     1  UNL1       -0.2701
      4 N          63.6397   88.1802   12.6886 N.am    1  UNL1       -0.3002
      5 H          64.2661   88.0658   11.9378 H       1  UNL1        0.1498
      6 C          65.3000   93.1501   11.3493 C.ar    1  UNL1        0.0863
      7 C          65.6842   92.7191   12.7337 C.ar    1  UNL1        0.0308
      8 C          65.0305   91.5203   13.3545 C.ar    1  UNL1        0.0643
      9 CL         65.4147   91.0892   14.7390 Cl      1  UNL1       -0.0820
     10 C          63.9926   90.7524   12.5909 C.ar    1  UNL1        0.0745
     11 C          63.6084   91.1833   11.2065 C.ar    1  UNL1        0.0643
     12 CL         62.5705   90.4155   10.4429 Cl      1  UNL1       -0.0820
     13 C          64.2621   92.3822   10.5857 C.ar    1  UNL1        0.0308
     14 C          67.6672   96.3422    7.8725 C.3     1  UNL1        0.0756
     15 C          67.0417   95.8162    9.1304 C.ar    1  UNL1        0.1613
     16 N          66.8774   96.5715   10.4160 N.ar    1  UNL1       -0.2073
     17 C          66.2050   95.6647   11.4036 C.ar    1  UNL1        0.2013
     18 N          65.9537   94.3490   10.7285 N.ar    1  UNL1       -0.2083
     19 N          66.4708   94.4426    9.3236 N.ar    1  UNL1       -0.1487
     20 C          62.8005   85.7282   12.5062 C.3     1  UNL1        0.0606
     21 C          62.2570   85.8056   11.1102 C.2     1  UNL1       -0.0304
     22 C          61.0746   86.6795   10.8132 C.2     1  UNL1       -0.0038
     23 C          60.5311   86.7569    9.4173 C.2     1  UNL1        0.0495
     24 C          61.1700   85.9605    8.3184 C.2     1  UNL1        0.2317
     25 N          60.8570   85.8357    6.8567 N.2     1  UNL1       -0.0350
     26 C          61.8459   84.8847    6.2504 C.2     1  UNL1        0.3518
     27 C          61.9010   84.4696    4.8100 C.3     1  UNL1        0.1367
     28 N          62.7702   84.4218    7.3374 N.2     1  UNL1       -0.0389
     29 C          62.3524   85.0866    8.6155 C.2     1  UNL1        0.2171
     30 C          62.8959   85.0092   10.0114 C.3     1  UNL1        0.1001
     31 C          63.1586   84.3976   13.0989 C.ar    1  UNL1       -0.0148
     32 C          64.0017   84.3308   14.3377 C.ar    1  UNL1       -0.0038
     33 C          64.3598   83.0001   14.9304 C.ar    1  UNL1        0.0020
     34 C          63.8747   81.7363   14.2842 C.ar    1  UNL1        0.0296
     35 C          63.0315   81.8032   13.0454 C.ar    1  UNL1        0.1398
     36 F          62.5465   80.5394   12.3993 F       1  UNL1       -0.2042
     37 C          62.6735   83.1337   12.4527 C.ar    1  UNL1        0.0257
@<TRIPOS>BOND
     1    14    15    1
     2    15    16   ar
     3    16    17   ar
     4    17    18   ar
     5    18     6    1
     6     6     7   ar
     7     7     8   ar
     8     8     9    1
     9     8    10   ar
    10    10     2    1
    11     2     3    2
    12     2     4   am
    13     4     1    1
    14    20     1    1
    15    20    31    1
    16    31    32   ar
    17    32    33   ar
    18    33    34   ar
    19    34    35   ar
    20    35    36    1
    21    35    37   ar
    22    20    21    1
    23    21    22    2
    24    22    23    1
    25    23    24    2
    26    24    25    1
    27    25    26    2
    28    26    27    1
    29    26    28    1
    30    28    29    2
    31    29    30    1
    32    10    11   ar
    33    11    12    1
    34    11    13   ar
    35    18    19   ar
    36    19    15   ar
    37    13     6   ar
    38    37    31   ar
    39    30    21    1
    40    29    24    1
    41     4     5    1
@<TRIPOS>MOLECULE
*****
 37 41 0 0 0
SMALL
GASTEIGER

@<TRIPOS>ATOM
      1 C          63.2263   87.0098   13.3045 C.3     1  UNL1        0.0980
      2 C          63.4942   89.5931   13.2334 C.2     1  UNL1        0.2475
      3 O          62.5022   89.7267   14.3506 O.2     1  UNL1       -0.2701
      4 N          63.8563   88.2346   12.7104 N.am    1  UNL1       -0.3002
      5 H          64.5073   88.1469   11.9771 H       1  UNL1        0.1498
      6 C          65.3841   93.2675   11.4511 C.ar    1  UNL1        0.0863
      7 C          65.7286   92.8504   12.8501 C.ar    1  UNL1        0.0308
      8 C          65.0987   91.6256   13.4442 C.ar    1  UNL1        0.0643
      9 CL         65.4432   91.2085   14.8433 Cl      1  UNL1       -0.0820
     10 C          64.1242   90.8179   12.6393 C.ar    1  UNL1        0.0745
     11 C          63.7796   91.2350   11.2402 C.ar    1  UNL1        0.0643
     12 CL         62.8051   90.4272   10.4353 Cl      1  UNL1       -0.0820
     13 C          64.4096   92.4597   10.6461 C.ar    1  UNL1        0.0308
     14 C          67.7476   96.5605    8.0672 C.3     1  UNL1        0.0756
     15 C          67.1004   96.0060    9.3015 C.ar    1  UNL1        0.1613
     16 N          66.8665   96.7483   10.5838 N.ar    1  UNL1       -0.2073
     17 C          66.1950   95.8128   11.5451 C.ar    1  UNL1        0.2013
     18 N          66.0141   94.4923   10.8569 N.ar    1  UNL1       -0.2083
     19 N          66.5736   94.6117    9.4703 N.ar    1  UNL1       -0.1487
     20 C          62.5204   86.0253   12.4199 C.3     1  UNL1        0.0606
     21 C          62.5435   84.5637   12.7564 C.2     1  UNL1       -0.0304
     22 C          62.5128   84.1235   14.1900 C.2     1  UNL1       -0.0038
     23 C          62.5360   82.6620   14.5264 C.2     1  UNL1        0.0495
     24 C          62.5898   81.6406   13.4293 C.2     1  UNL1        0.2317
     25 N          62.6225   80.1411   13.4546 N.2     1  UNL1       -0.0350
     26 C          62.6734   79.6546   12.0366 C.2     1  UNL1        0.3518
     27 C          62.7178   78.2209   11.5974 C.3     1  UNL1        0.1367
     28 N          62.6721   80.8533   11.1350 N.2     1  UNL1       -0.0389
     29 C          62.6204   82.0807   11.9957 C.2     1  UNL1        0.2171
     30 C          62.5973   83.5423   11.6592 C.3     1  UNL1        0.1001
     31 C          61.7913   86.5024   11.1990 C.ar    1  UNL1       -0.0148
     32 C          60.7356   87.5610   11.3216 C.ar    1  UNL1       -0.0038
     33 C          60.0065   88.0381   10.1005 C.ar    1  UNL1        0.0020
     34 C          60.3331   87.4566    8.7570 C.ar    1  UNL1        0.0296
     35 C          61.3888   86.3981    8.6344 C.ar    1  UNL1        0.1398
     36 F          61.7154   85.8166    7.2908 F       1  UNL1       -0.2042
     37 C          62.1179   85.9210    9.8553 C.ar    1  UNL1        0.0257
@<TRIPOS>BOND
     1    14    15    1
     2    15    16   ar
     3    16    17   ar
     4    17    18   ar
     5    18     6    1
     6     6     7   ar
     7     7     8   ar
     8     8     9    1
     9     8    10   ar
    10    10     2    1
    11     2     3    2
    12     2     4   am
    13     4     1    1
    14    20     1    1
    15    20    31    1
    16    31    32   ar
    17    32    33   ar
    18    33    34   ar
    19    34    35   ar
    20    35    36    1
    21    35    37   ar
    22    20    21    1
    23    21    22    2
    24    22    23    1
    25    23    24    2
    26    24    25    1
    27    25    26    2
    28    26    27    1
    29    26    28    1
    30    28    29    2
    31    29    30    1
    32    10    11   ar
    33    11    12    1
    34    11    13   ar
    35    18    19   ar
    36    19    15   ar
    37    13     6   ar
    38    37    31   ar
    39    30    21    1
    40    29    24    1
    41     4     5    1
@<TRIPOS>MOLECULE
*****
 37 41 0 0 0
SMALL
GASTEIGER

@<TRIPOS>ATOM
      1 C          62.7896   87.1825   12.8941 C.3     1  UNL1        0.0980
      2 C          63.3715   89.7116   13.0175 C.2     1  UNL1        0.2475
      3 O          62.6162   89.8224   14.3087 O.2     1  UNL1       -0.2701
      4 N          63.4582   88.3916   12.3102 N.am    1  UNL1       -0.3002
      5 H          63.9540   88.3189   11.4628 H       1  UNL1        0.1498
      6 C          65.3776   93.3388   11.2657 C.ar    1  UNL1        0.0863
      7 C          64.3734   92.5729   10.4565 C.ar    1  UNL1        0.0308
      8 C          63.7047   91.3639   11.0404 C.ar    1  UNL1        0.0643
      9 CL         62.7005   90.5979   10.2311 Cl      1  UNL1       -0.0820
     10 C          64.0403   90.9207   12.4336 C.ar    1  UNL1        0.0745
     11 C          65.0444   91.6866   13.2429 C.ar    1  UNL1        0.0643
     12 CL         65.3800   91.2434   14.6361 Cl      1  UNL1       -0.0820
     13 C          65.7131   92.8957   12.6589 C.ar    1  UNL1        0.0308
     14 C          67.8030   96.5993    7.8941 C.3     1  UNL1        0.0756
     15 C          67.1611   96.0466    9.1321 C.ar    1  UNL1        0.1613
     16 N          66.9894   96.7706   10.4346 N.ar    1  UNL1       -0.2073
     17 C          66.3004   95.8443   11.3924 C.ar    1  UNL1        0.2013
     18 N          66.0463   94.5480   10.6818 N.ar    1  UNL1       -0.2083
     19 N          66.5782   94.6730    9.2849 N.ar    1  UNL1       -0.1487
     20 C          62.6443   85.9358   12.0727 C.3     1  UNL1        0.0606
     21 C          62.9943   84.6027   12.6647 C.2     1  UNL1       -0.0304
     22 C          64.1369   84.4872   13.6296 C.2     1  UNL1       -0.0038
     23 C          64.4868   83.1541   14.2216 C.2     1  UNL1        0.0495
     24 C          63.6940   81.9365   13.8486 C.2     1  UNL1        0.2317
     25 N          63.8040   80.5002   14.2671 N.2     1  UNL1       -0.0350
     26 C          62.7293   79.7281   13.5609 C.2     1  UNL1        0.3518
     27 C          62.4736   78.2554   13.6873 C.3     1  UNL1        0.1367
     28 N          61.9552   80.6872   12.7059 N.2     1  UNL1       -0.0389
     29 C          62.5514   82.0520   12.8838 C.2     1  UNL1        0.2171
     30 C          62.2015   83.3851   12.2918 C.3     1  UNL1        0.1001
     31 C          62.1492   86.0221   10.6595 C.ar    1  UNL1       -0.0148
     32 C          62.9330   85.3859    9.5500 C.ar    1  UNL1       -0.0038
     33 C          62.4378   85.4723    8.1367 C.ar    1  UNL1        0.0020
     34 C          61.1589   86.1949    7.8329 C.ar    1  UNL1        0.0296
     35 C          60.3751   86.8311    8.9424 C.ar    1  UNL1        0.1398
     36 F          59.0963   87.5536    8.6386 F       1  UNL1       -0.2042
     37 C          60.8703   86.7447   10.3556 C.ar    1  UNL1        0.0257
@<TRIPOS>BOND
     1    14    15    1
     2    15    16   ar
     3    16    17   ar
     4    17    18   ar
     5    18     6    1
     6     6     7   ar
     7     7     8   ar
     8     8     9    1
     9     8    10   ar
    10    10     2    1
    11     2     3    2
    12     2     4   am
    13     4     1    1
    14    20     1    1
    15    20    31    1
    16    31    32   ar
    17    32    33   ar
    18    33    34   ar
    19    34    35   ar
    20    35    36    1
    21    35    37   ar
    22    20    21    1
    23    21    22    2
    24    22    23    1
    25    23    24    2
    26    24    25    1
    27    25    26    2
    28    26    27    1
    29    26    28    1
    30    28    29    2
    31    29    30    1
    32    10    11   ar
    33    11    12    1
    34    11    13   ar
    35    18    19   ar
    36    19    15   ar
    37    13     6   ar
    38    37    31   ar
    39    30    21    1
    40    29    24    1
    41     4     5    1
@<TRIPOS>MOLECULE
*****
 37 41 0 0 0
SMALL
GASTEIGER

@<TRIPOS>ATOM
      1 C          64.2619   91.4478   12.7322 C.3     1  UNL1        0.0980
      2 C          62.9670   89.2204   12.3981 C.2     1  UNL1        0.2475
      3 O          61.6916   89.9889   12.2172 O.2     1  UNL1       -0.2701
      4 N          64.2521   89.9499   12.6555 N.am    1  UNL1       -0.3002
      5 H          65.0892   89.4454   12.7742 H       1  UNL1        0.1498
      6 C          62.9378   84.7264   12.1683 C.ar    1  UNL1        0.0863
      7 C          63.5896   85.4137   13.3314 C.ar    1  UNL1        0.0308
      8 C          63.5993   86.9116   13.4079 C.ar    1  UNL1        0.0643
      9 CL         64.2512   87.5990   14.5710 Cl      1  UNL1       -0.0820
     10 C          62.9572   87.7223   12.3215 C.ar    1  UNL1        0.0745
     11 C          62.3054   87.0351   11.1584 C.ar    1  UNL1        0.0643
     12 CL         61.6633   87.8458   10.0719 Cl      1  UNL1       -0.0820
     13 C          62.2957   85.5371   11.0818 C.ar    1  UNL1        0.0308
     14 C          62.3828   79.6356   13.4557 C.3     1  UNL1        0.0756
     15 C          62.6730   80.8884   12.6834 C.ar    1  UNL1        0.1613
     16 N          63.1533   80.9579   11.2640 N.ar    1  UNL1       -0.2073
     17 C          63.3109   82.4040   10.8983 C.ar    1  UNL1        0.2013
     18 N          62.9281   83.2283   12.0917 N.ar    1  UNL1       -0.2083
     19 N          62.5338   82.2916   13.1949 N.ar    1  UNL1       -0.1487
     20 C          65.5658   92.1879   12.7803 C.3     1  UNL1        0.0606
     21 C          66.1653   92.7339   11.5184 C.2     1  UNL1       -0.0304
     22 C          67.2945   92.0080   10.8492 C.2     1  UNL1       -0.0038
     23 C          67.8939   92.5540    9.5873 C.2     1  UNL1        0.0495
     24 C          67.3642   93.8260    8.9946 C.2     1  UNL1        0.2317
     25 N          67.7515   94.6000    7.7693 N.2     1  UNL1       -0.0350
     26 C          66.8616   95.8043    7.6814 C.2     1  UNL1        0.3518
     27 C          66.9019   96.8540    6.6106 C.3     1  UNL1        0.1367
     28 N          65.9244   95.7746    8.8522 N.2     1  UNL1       -0.0389
     29 C          66.2350   94.5520    9.6637 C.2     1  UNL1        0.2171
     30 C          65.6355   94.0060   10.9256 C.3     1  UNL1        0.1001
     31 C          66.2701   92.3819   14.0904 C.ar    1  UNL1       -0.0148
     32 C          65.5300   92.1722   15.3781 C.ar    1  UNL1       -0.0038
     33 C          66.2344   92.3662   16.6882 C.ar    1  UNL1        0.0020
     34 C          67.6788   92.7699   16.7105 C.ar    1  UNL1        0.0296
     35 C          68.4190   92.9796   15.4228 C.ar    1  UNL1        0.1398
     36 F          69.8634   93.3832   15.4451 F       1  UNL1       -0.2042
     37 C          67.7146   92.7856   14.1127 C.ar    1  UNL1        0.0257
@<TRIPOS>BOND
     1    14    15    1
     2    15    16   ar
     3    16    17   ar
     4    17    18   ar
     5    18     6    1
     6     6     7   ar
     7     7     8   ar
     8     8     9    1
     9     8    10   ar
    10    10     2    1
    11     2     3    2
    12     2     4   am
    13     4     1    1
    14    20     1    1
    15    20    31    1
    16    31    32   ar
    17    32    33   ar
    18    33    34   ar
    19    34    35   ar
    20    35    36    1
    21    35    37   ar
    22    20    21    1
    23    21    22    2
    24    22    23    1
    25    23    24    2
    26    24    25    1
    27    25    26    2
    28    26    27    1
    29    26    28    1
    30    28    29    2
    31    29    30    1
    32    10    11   ar
    33    11    12    1
    34    11    13   ar
    35    18    19   ar
    36    19    15   ar
    37    13     6   ar
    38    37    31   ar
    39    30    21    1
    40    29    24    1
    41     4     5    1
@<TRIPOS>MOLECULE
*****
 37 41 0 0 0
SMALL
GASTEIGER

@<TRIPOS>ATOM
      1 C          61.8054   87.9812   10.7523 C.3     1  UNL1        0.0980
      2 C          62.8324   89.6713   12.4371 C.2     1  UNL1        0.2475
      3 O          61.4772   89.8934   13.0405 O.2     1  UNL1       -0.2701
      4 N          62.9965   88.7152   11.2930 N.am    1  UNL1       -0.3002
      5 H          63.8860   88.5695   10.8971 H       1  UNL1        0.1498
      6 C          66.4059   91.8734   14.0592 C.ar    1  UNL1        0.0863
      7 C          65.8347   92.2508   12.7246 C.ar    1  UNL1        0.0308
      8 C          64.6435   91.5168   12.1839 C.ar    1  UNL1        0.0643
      9 CL         64.0723   91.8942   10.8493 Cl      1  UNL1       -0.0820
     10 C          64.0236   90.4053   12.9779 C.ar    1  UNL1        0.0745
     11 C          64.5948   90.0279   14.3125 C.ar    1  UNL1        0.0643
     12 CL         63.9748   88.9165   15.1064 Cl      1  UNL1       -0.0820
     13 C          65.7859   90.7619   14.8532 C.ar    1  UNL1        0.0308
     14 C          69.4024   95.3524   16.6666 C.3     1  UNL1        0.0756
     15 C          68.9744   94.2065   15.7984 C.ar    1  UNL1        0.1613
     16 N          69.8859   93.2672   15.0656 N.ar    1  UNL1       -0.2073
     17 C          69.0346   92.2789   14.3249 C.ar    1  UNL1        0.2013
     18 N          67.5971   92.6074   14.6000 N.ar    1  UNL1       -0.2083
     19 N          67.5599   93.7987   15.5106 N.ar    1  UNL1       -0.1487
     20 C          61.9144   86.5254   10.4079 C.3     1  UNL1        0.0606
     21 C          62.3738   85.5421   11.4433 C.2     1  UNL1       -0.0304
     22 C          63.0653   86.0266   12.6831 C.2     1  UNL1       -0.0038
     23 C          63.5248   85.0433   13.7185 C.2     1  UNL1        0.0495
     24 C          63.2926   83.5755   13.5141 C.2     1  UNL1        0.2317
     25 N          63.6312   82.3793   14.3536 N.2     1  UNL1       -0.0350
     26 C          63.1489   81.1556   13.6326 C.2     1  UNL1        0.3518
     27 C          63.2801   79.7404   14.1124 C.3     1  UNL1        0.1367
     28 N          62.5122   81.5955   12.3476 N.2     1  UNL1       -0.0389
     29 C          62.6011   83.0910   12.2743 C.2     1  UNL1        0.2171
     30 C          62.1417   84.0743   11.2390 C.3     1  UNL1        0.1001
     31 C          61.5639   86.0528    9.0281 C.ar    1  UNL1       -0.0148
     32 C          60.1679   86.2269    8.5077 C.ar    1  UNL1       -0.0038
     33 C          59.8175   85.7543    7.1278 C.ar    1  UNL1        0.0020
     34 C          60.8631   85.1076    6.2685 C.ar    1  UNL1        0.0296
     35 C          62.2591   84.9336    6.7889 C.ar    1  UNL1        0.1398
     36 F          63.3047   84.2869    5.9296 F       1  UNL1       -0.2042
     37 C          62.6096   85.4061    8.1687 C.ar    1  UNL1        0.0257
@<TRIPOS>BOND
     1    14    15    1
     2    15    16   ar
     3    16    17   ar
     4    17    18   ar
     5    18     6    1
     6     6     7   ar
     7     7     8   ar
     8     8     9    1
     9     8    10   ar
    10    10     2    1
    11     2     3    2
    12     2     4   am
    13     4     1    1
    14    20     1    1
    15    20    31    1
    16    31    32   ar
    17    32    33   ar
    18    33    34   ar
    19    34    35   ar
    20    35    36    1
    21    35    37   ar
    22    20    21    1
    23    21    22    2
    24    22    23    1
    25    23    24    2
    26    24    25    1
    27    25    26    2
    28    26    27    1
    29    26    28    1
    30    28    29    2
    31    29    30    1
    32    10    11   ar
    33    11    12    1
    34    11    13   ar
    35    18    19   ar
    36    19    15   ar
    37    13     6   ar
    38    37    31   ar
    39    30    21    1
    40    29    24    1
    41     4     5    1
@<TRIPOS>MOLECULE
*****
 37 41 0 0 0
SMALL
GASTEIGER

@<TRIPOS>ATOM
      1 C          61.7894   87.9539   10.8183 C.3     1  UNL1        0.0980
      2 C          62.8240   89.6654   12.4767 C.2     1  UNL1        0.2475
      3 O          61.4686   89.9090   13.0711 O.2     1  UNL1       -0.2701
      4 N          62.9845   88.6879   11.3503 N.am    1  UNL1       -0.3002
      5 H          63.8741   88.5281   10.9602 H       1  UNL1        0.1498
      6 C          66.4094   91.8674   14.0726 C.ar    1  UNL1        0.0863
      7 C          65.8011   90.7495   14.8666 C.ar    1  UNL1        0.0308
      8 C          64.6061   90.0156   14.3346 C.ar    1  UNL1        0.0643
      9 CL         63.9978   88.8977   15.1287 Cl      1  UNL1       -0.0820
     10 C          64.0192   90.3995   13.0087 C.ar    1  UNL1        0.0745
     11 C          64.6274   91.5173   12.2146 C.ar    1  UNL1        0.0643
     12 CL         64.0406   91.9012   10.8887 Cl      1  UNL1       -0.0820
     13 C          65.8225   92.2512   12.7466 C.ar    1  UNL1        0.0308
     14 C          69.4249   95.3474   16.6567 C.3     1  UNL1        0.0756
     15 C          68.9906   94.2009   15.7923 C.ar    1  UNL1        0.1613
     16 N          69.8967   93.2607   15.0539 N.ar    1  UNL1       -0.2073
     17 C          69.0400   92.2722   14.3199 C.ar    1  UNL1        0.2013
     18 N          67.6045   92.6014   14.6046 N.ar    1  UNL1       -0.2083
     19 N          67.5740   93.7934   15.5146 N.ar    1  UNL1       -0.1487
     20 C          61.9013   86.5032   10.4540 C.3     1  UNL1        0.0606
     21 C          62.3779   85.5090   11.4712 C.2     1  UNL1       -0.0304
     22 C          63.1101   85.9787   12.6931 C.2     1  UNL1       -0.0038
     23 C          63.5867   84.9846   13.7102 C.2     1  UNL1        0.0495
     24 C          63.3310   83.5208   13.5054 C.2     1  UNL1        0.2317
     25 N          63.6786   82.3163   14.3292 N.2     1  UNL1       -0.0350
     26 C          63.1611   81.1022   13.6163 C.2     1  UNL1        0.3518
     27 C          63.2886   79.6831   14.0853 C.3     1  UNL1        0.1367
     28 N          62.4937   81.5564   12.3520 N.2     1  UNL1       -0.0389
     29 C          62.5987   83.0511   12.2835 C.2     1  UNL1        0.2171
     30 C          62.1221   84.0452   11.2664 C.3     1  UNL1        0.1001
     31 C          61.5366   86.0465    9.0726 C.ar    1  UNL1       -0.0148
     32 C          60.1432   86.2541    8.5574 C.ar    1  UNL1       -0.0038
     33 C          59.7785   85.7974    7.1759 C.ar    1  UNL1        0.0020
     34 C          60.8072   85.1331    6.3096 C.ar    1  UNL1        0.0296
     35 C          62.2005   84.9255    6.8248 C.ar    1  UNL1        0.1398
     36 F          63.2292   84.2612    5.9585 F       1  UNL1       -0.2042
     37 C          62.5653   85.3822    8.2062 C.ar    1  UNL1        0.0257
@<TRIPOS>BOND
     1    14    15    1
     2    15    16   ar
     3    16    17   ar
     4    17    18   ar
     5    18     6    1
     6     6     7   ar
     7     7     8   ar
     8     8     9    1
     9     8    10   ar
    10    10     2    1
    11     2     3    2
    12     2     4   am
    13     4     1    1
    14    20     1    1
    15    20    31    1
    16    31    32   ar
    17    32    33   ar
    18    33    34   ar
    19    34    35   ar
    20    35    36    1
    21    35    37   ar
    22    20    21    1
    23    21    22    2
    24    22    23    1
    25    23    24    2
    26    24    25    1
    27    25    26    2
    28    26    27    1
    29    26    28    1
    30    28    29    2
    31    29    30    1
    32    10    11   ar
    33    11    12    1
    34    11    13   ar
    35    18    19   ar
    36    19    15   ar
    37    13     6   ar
    38    37    31   ar
    39    30    21    1
    40    29    24    1
    41     4     5    1
@<TRIPOS>MOLECULE
*****
 37 41 0 0 0
SMALL
GASTEIGER

@<TRIPOS>ATOM
      1 C          64.0716   89.4049   13.4306 C.3     1  UNL1        0.0980
      2 C          64.1092   86.9105   14.1561 C.2     1  UNL1        0.2475
      3 O          65.3499   87.1631   14.9604 O.2     1  UNL1       -0.2701
      4 N          63.4701   88.0314   13.3912 N.am    1  UNL1       -0.3002
      5 H          62.6558   87.8655   12.8633 H       1  UNL1        0.1498
      6 C          62.3046   82.7899   14.0379 C.ar    1  UNL1        0.0863
      7 C          62.7401   83.3806   15.3460 C.ar    1  UNL1        0.0308
      8 C          63.3416   84.7541   15.3854 C.ar    1  UNL1        0.0643
      9 CL         63.7771   85.3450   16.6936 Cl      1  UNL1       -0.0820
     10 C          63.5077   85.5369   14.1166 C.ar    1  UNL1        0.0745
     11 C          63.0722   84.9461   12.8085 C.ar    1  UNL1        0.0643
     12 CL         63.2383   85.7288   11.5397 Cl      1  UNL1       -0.0820
     13 C          62.4707   83.5726   12.7691 C.ar    1  UNL1        0.0308
     14 C          58.8808   78.7928   14.4649 C.3     1  UNL1        0.0756
     15 C          60.1294   79.5791   14.1947 C.ar    1  UNL1        0.1613
     16 N          61.4256   79.0261   13.6807 N.ar    1  UNL1       -0.2073
     17 C          62.3982   80.1616   13.5594 C.ar    1  UNL1        0.2013
     18 N          61.7031   81.4163   13.9984 N.ar    1  UNL1       -0.2083
     19 N          60.3009   81.0562   14.3911 N.ar    1  UNL1       -0.1487
     20 C          63.7162   90.4098   12.3752 C.3     1  UNL1        0.0606
     21 C          64.5715   91.6266   12.1800 C.2     1  UNL1       -0.0304
     22 C          65.3176   92.2131   13.3415 C.2     1  UNL1       -0.0038
     23 C          66.1728   93.4299   13.1461 C.2     1  UNL1        0.0495
     24 C          66.2818   94.0601   11.7893 C.2     1  UNL1        0.2317
     25 N          67.0419   95.2555   11.2960 N.2     1  UNL1       -0.0350
     26 C          66.7654   95.4078    9.8296 C.2     1  UNL1        0.3518
     27 C          67.3221   96.4742    8.9334 C.3     1  UNL1        0.1367
     28 N          65.8345   94.3065    9.4167 N.2     1  UNL1       -0.0389
     29 C          65.5356   93.4736   10.6278 C.2     1  UNL1        0.2171
     30 C          64.6804   92.2568   10.8231 C.3     1  UNL1        0.1001
     31 C          62.5057   90.1981   11.5152 C.ar    1  UNL1       -0.0148
     32 C          62.6284   89.4568   10.2169 C.ar    1  UNL1       -0.0038
     33 C          61.4178   89.2450    9.3568 C.ar    1  UNL1        0.0020
     34 C          60.0846   89.7745    9.7950 C.ar    1  UNL1        0.0296
     35 C          59.9618   90.5158   11.0933 C.ar    1  UNL1        0.1398
     36 F          58.6286   91.0452   11.5315 F       1  UNL1       -0.2042
     37 C          61.1723   90.7275   11.9534 C.ar    1  UNL1        0.0257
@<TRIPOS>BOND
     1    14    15    1
     2    15    16   ar
     3    16    17   ar
     4    17    18   ar
     5    18     6    1
     6     6     7   ar
     7     7     8   ar
     8     8     9    1
     9     8    10   ar
    10    10     2    1
    11     2     3    2
    12     2     4   am
    13     4     1    1
    14    20     1    1
    15    20    31    1
    16    31    32   ar
    17    32    33   ar
    18    33    34   ar
    19    34    35   ar
    20    35    36    1
    21    35    37   ar
    22    20    21    1
    23    21    22    2
    24    22    23    1
    25    23    24    2
    26    24    25    1
    27    25    26    2
    28    26    27    1
    29    26    28    1
    30    28    29    2
    31    29    30    1
    32    10    11   ar
    33    11    12    1
    34    11    13   ar
    35    18    19   ar
    36    19    15   ar
    37    13     6   ar
    38    37    31   ar
    39    30    21    1
    40    29    24    1
    41     4     5    1
