@<TRIPOS>MOLECULE
*****
 33 36 0 0 0
SMALL
GASTEIGER

@<TRIPOS>ATOM
      1 C          63.0878   88.3117   12.7082 C.ar    1  UNL1        0.3283
      2 N          63.3247   86.8994   13.1547 N.ar    1  UNL1       -0.1746
      3 C          62.7085   85.7602   12.3980 C.ar    1  UNL1        0.1712
      4 N          61.8553   86.0334   11.1949 N.ar    1  UNL1       -0.1943
      5 C          61.6184   87.4456   10.7484 C.ar    1  UNL1        0.2255
      6 N          62.2346   88.5848   11.5051 N.ar    1  UNL1       -0.1607
      7 C          62.9454   84.3479   12.8445 C.ar    1  UNL1        0.0553
      8 C          62.7822   83.2168   11.8728 C.ar    1  UNL1        0.0075
      9 C          63.0191   81.8046   12.3192 C.ar    1  UNL1        0.0340
     10 C          63.4192   81.5233   13.7372 C.ar    1  UNL1        0.1254
     11 N          63.6561   80.1110   14.1837 N.pl3   1  UNL1       -0.3426
     12 N          63.5823   82.6544   14.7089 N.ar    1  UNL1       -0.2295
     13 C          63.3454   84.0667   14.2625 C.ar    1  UNL1        0.1033
     14 H          63.5490   79.3686   13.5460 H       1  UNL1        0.1437
     15 H          63.9186   79.9264   15.1144 H       1  UNL1        0.1437
     16 N          60.7653   87.7187    9.5452 N.pl3   1  UNL1       -0.2729
     17 C          60.0805   86.5865    8.8388 C.3     1  UNL1        0.1257
     18 C          59.2273   86.8596    7.6356 C.3     1  UNL1        0.1637
     19 O          59.0590   88.2649    7.1389 O.3     1  UNL1       -0.3501
     20 C          59.7439   89.3972    7.8454 C.3     1  UNL1        0.1637
     21 C          60.5970   89.1241    9.0485 C.3     1  UNL1        0.1257
     22 O          63.7040   89.4508   13.4649 O.3     1  UNL1       -0.4222
     23 C          65.4236   92.9627   11.2379 C.ar    1  UNL1        0.0538
     24 C          65.9361   92.6174   12.6047 C.ar    1  UNL1        0.0076
     25 C          65.3629   91.4468   13.3470 C.ar    1  UNL1        0.0378
     26 C          64.2772   90.6215   12.7226 C.ar    1  UNL1        0.1487
     27 C          63.7646   90.9668   11.3559 C.ar    1  UNL1        0.0378
     28 C          64.3378   92.1374   10.6135 C.ar    1  UNL1        0.0076
     29 C          67.8066   95.1323    8.9219 C.3     1  UNL1        0.1152
     30 N          67.2334   93.9617    9.6642 N.am    1  UNL1       -0.2726
     31 C          67.8969   92.6193    9.5752 C.3     1  UNL1        0.1152
     32 C          65.9968   94.1334   10.4956 C.2     1  UNL1        0.2491
     33 O          65.3333   95.4757   10.5846 O.2     1  UNL1       -0.2699
@<TRIPOS>BOND
     1    29    30    1
     2    30    31    1
     3    30    32   am
     4    32    33    2
     5    32    23    1
     6    23    24   ar
     7    24    25   ar
     8    25    26   ar
     9    26    22    1
    10    22     1    1
    11     1     2   ar
    12     2     3   ar
    13     3     7    1
    14     7     8   ar
    15     8     9   ar
    16     9    10   ar
    17    10    11    1
    18    10    12   ar
    19    12    13   ar
    20     3     4   ar
    21     4     5   ar
    22     5    16    1
    23    16    17    1
    24    17    18    1
    25    18    19    1
    26    19    20    1
    27    20    21    1
    28     5     6   ar
    29    26    27   ar
    30    27    28   ar
    31    28    23   ar
    32     6     1   ar
    33    13     7   ar
    34    21    16    1
    35    11    14    1
    36    11    15    1
@<TRIPOS>MOLECULE
*****
 33 36 0 0 0
SMALL
GASTEIGER

@<TRIPOS>ATOM
      1 C          63.6715   88.4539   13.3041 C.ar    1  UNL1        0.3283
      2 N          62.8234   88.7800   12.1106 N.ar    1  UNL1       -0.1746
      3 C          62.1735   87.6774   11.3285 C.ar    1  UNL1        0.1712
      4 N          62.3716   86.2486   11.7398 N.ar    1  UNL1       -0.1943
      5 C          63.2198   85.9224   12.9332 C.ar    1  UNL1        0.2255
      6 N          63.8697   87.0250   13.7154 N.ar    1  UNL1       -0.1607
      7 C          61.3253   88.0035   10.1351 C.ar    1  UNL1        0.0553
      8 C          60.7137   86.8990    9.3252 C.ar    1  UNL1        0.0075
      9 C          59.8656   87.2250    8.1318 C.ar    1  UNL1        0.0340
     10 C          59.6290   88.6557    7.7482 C.ar    1  UNL1        0.1254
     11 N          58.7808   88.9819    6.5548 N.pl3   1  UNL1       -0.3426
     12 N          60.2406   89.7603    8.5581 N.ar    1  UNL1       -0.2295
     13 C          61.0887   89.4342    9.7515 C.ar    1  UNL1        0.1033
     14 H          58.3794   88.2569    6.0232 H       1  UNL1        0.1437
     15 H          58.6256   89.9209    6.3030 H       1  UNL1        0.1437
     16 N          63.4180   84.4935   13.3445 N.pl3   1  UNL1       -0.2729
     17 C          63.0017   84.0424   14.7131 C.3     1  UNL1        0.1257
     18 C          63.1999   82.6136   15.1244 C.3     1  UNL1        0.1637
     19 O          63.8144   81.6359   14.1671 O.3     1  UNL1       -0.3501
     20 C          64.2307   82.0870   12.7984 C.3     1  UNL1        0.1637
     21 C          64.0325   83.5158   12.3871 C.3     1  UNL1        0.1257
     22 O          64.3215   89.5565   14.0862 O.3     1  UNL1       -0.4222
     23 C          65.7916   93.2485   11.9748 C.ar    1  UNL1        0.0538
     24 C          64.6397   92.4706   11.4110 C.ar    1  UNL1        0.0076
     25 C          64.1496   91.2399   12.1148 C.ar    1  UNL1        0.0378
     26 C          64.8115   90.7872   13.3824 C.ar    1  UNL1        0.1487
     27 C          65.9634   91.5650   13.9462 C.ar    1  UNL1        0.0378
     28 C          66.4535   92.7957   13.2424 C.ar    1  UNL1        0.0076
     29 C          67.6592   95.5828    9.3646 C.3     1  UNL1        0.1152
     30 N          67.1691   94.3521   10.0684 N.am    1  UNL1       -0.2726
     31 C          67.5666   92.9944    9.5696 C.3     1  UNL1        0.1152
     32 C          66.2817   94.4791   11.2709 C.2     1  UNL1        0.2491
     33 O          65.8842   95.8368   11.7697 O.2     1  UNL1       -0.2699
@<TRIPOS>BOND
     1    29    30    1
     2    30    31    1
     3    30    32   am
     4    32    33    2
     5    32    23    1
     6    23    24   ar
     7    24    25   ar
     8    25    26   ar
     9    26    22    1
    10    22     1    1
    11     1     2   ar
    12     2     3   ar
    13     3     7    1
    14     7     8   ar
    15     8     9   ar
    16     9    10   ar
    17    10    11    1
    18    10    12   ar
    19    12    13   ar
    20     3     4   ar
    21     4     5   ar
    22     5    16    1
    23    16    17    1
    24    17    18    1
    25    18    19    1
    26    19    20    1
    27    20    21    1
    28     5     6   ar
    29    26    27   ar
    30    27    28   ar
    31    28    23   ar
    32     6     1   ar
    33    13     7   ar
    34    21    16    1
    35    11    14    1
    36    11    15    1
@<TRIPOS>MOLECULE
*****
 33 36 0 0 0
SMALL
GASTEIGER

@<TRIPOS>ATOM
      1 C          63.9425   87.9508   14.1508 C.ar    1  UNL1        0.3283
      2 N          63.0106   87.7768   12.9883 N.ar    1  UNL1       -0.1746
      3 C          62.8343   88.8873   11.9956 C.ar    1  UNL1        0.1712
      4 N          63.5899   90.1720   12.1653 N.ar    1  UNL1       -0.1943
      5 C          64.5217   90.3460   13.3277 C.ar    1  UNL1        0.2255
      6 N          64.6980   89.2354   14.3205 N.ar    1  UNL1       -0.1607
      7 C          61.9024   88.7133   10.8331 C.ar    1  UNL1        0.0553
      8 C          61.7510   87.3675   10.1882 C.ar    1  UNL1        0.0075
      9 C          60.8192   87.1934    9.0257 C.ar    1  UNL1        0.0340
     10 C          60.0387   88.3652    8.5081 C.ar    1  UNL1        0.1254
     11 N          59.1068   88.1911    7.3456 N.pl3   1  UNL1       -0.3426
     12 N          60.1902   89.7110    9.1530 N.ar    1  UNL1       -0.2295
     13 C          61.1220   89.8850   10.3155 C.ar    1  UNL1        0.1033
     14 H          59.0075   87.3078    6.9224 H       1  UNL1        0.1437
     15 H          58.5946   88.9602    7.0059 H       1  UNL1        0.1437
     16 N          65.2773   91.6307   13.4975 N.pl3   1  UNL1       -0.2729
     17 C          65.8761   91.9784   14.8280 C.3     1  UNL1        0.1257
     18 C          66.6317   93.2631   14.9978 C.3     1  UNL1        0.1637
     19 O          66.7884   94.2000   13.8370 O.3     1  UNL1       -0.3501
     20 C          66.1895   93.8523   12.5063 C.3     1  UNL1        0.1637
     21 C          65.4340   92.5676   12.3366 C.3     1  UNL1        0.1257
     22 O          64.1188   86.8402   15.1435 O.3     1  UNL1       -0.4222
     23 C          63.3984   82.5757   13.9004 C.ar    1  UNL1        0.0538
     24 C          62.3534   83.3160   14.6813 C.ar    1  UNL1        0.0076
     25 C          62.5935   84.7375   15.0957 C.ar    1  UNL1        0.0378
     26 C          63.8786   85.4187   14.7291 C.ar    1  UNL1        0.1487
     27 C          64.9236   84.6784   13.9482 C.ar    1  UNL1        0.0378
     28 C          64.6835   83.2569   13.5338 C.ar    1  UNL1        0.0076
     29 C          62.7301   79.3956   11.6222 C.3     1  UNL1        0.1152
     30 N          62.9703   80.8171   12.0365 N.am    1  UNL1       -0.2726
     31 C          63.0223   81.9015   11.0014 C.3     1  UNL1        0.1152
     32 C          63.1583   81.1542   13.4860 C.2     1  UNL1        0.2491
     33 O          63.1062   80.0699   14.5211 O.2     1  UNL1       -0.2699
@<TRIPOS>BOND
     1    29    30    1
     2    30    31    1
     3    30    32   am
     4    32    33    2
     5    32    23    1
     6    23    24   ar
     7    24    25   ar
     8    25    26   ar
     9    26    22    1
    10    22     1    1
    11     1     2   ar
    12     2     3   ar
    13     3     7    1
    14     7     8   ar
    15     8     9   ar
    16     9    10   ar
    17    10    11    1
    18    10    12   ar
    19    12    13   ar
    20     3     4   ar
    21     4     5   ar
    22     5    16    1
    23    16    17    1
    24    17    18    1
    25    18    19    1
    26    19    20    1
    27    20    21    1
    28     5     6   ar
    29    26    27   ar
    30    27    28   ar
    31    28    23   ar
    32     6     1   ar
    33    13     7   ar
    34    21    16    1
    35    11    14    1
    36    11    15    1
@<TRIPOS>MOLECULE
*****
 33 36 0 0 0
SMALL
GASTEIGER

@<TRIPOS>ATOM
      1 C          62.5222   88.1883   11.3221 C.ar    1  UNL1        0.3283
      2 N          62.2421   87.6387    9.9547 N.ar    1  UNL1       -0.1746
      3 C          62.2843   86.1581    9.7185 C.ar    1  UNL1        0.1712
      4 N          62.6065   85.2270   10.8495 N.ar    1  UNL1       -0.1943
      5 C          62.8866   85.7765   12.2168 C.ar    1  UNL1        0.2255
      6 N          62.8444   87.2572   12.4531 N.ar    1  UNL1       -0.1607
      7 C          62.0042   85.6084    8.3511 C.ar    1  UNL1        0.0553
      8 C          63.0983   84.9393    7.5732 C.ar    1  UNL1        0.0075
      9 C          62.8183   84.3896    6.2060 C.ar    1  UNL1        0.0340
     10 C          61.4442   84.5092    5.6166 C.ar    1  UNL1        0.1254
     11 N          61.1642   83.9596    4.2492 N.pl3   1  UNL1       -0.3426
     12 N          60.3501   85.1784    6.3944 N.ar    1  UNL1       -0.2295
     13 C          60.6301   85.7280    7.7617 C.ar    1  UNL1        0.1033
     14 H          61.8823   83.5204    3.7387 H       1  UNL1        0.1437
     15 H          60.2623   84.0381    3.8624 H       1  UNL1        0.1437
     16 N          63.2088   84.8454   13.3478 N.pl3   1  UNL1       -0.2729
     17 C          63.9308   85.3579   14.5586 C.3     1  UNL1        0.1257
     18 C          64.2530   84.4268   15.6897 C.3     1  UNL1        0.1637
     19 O          63.8533   82.9832   15.6098 O.3     1  UNL1       -0.3501
     20 C          63.1313   82.4707   14.3990 C.3     1  UNL1        0.1637
     21 C          62.8091   83.4018   13.2679 C.3     1  UNL1        0.1257
     22 O          62.4800   89.6690   11.5583 O.3     1  UNL1       -0.4222
     23 C          65.5247   91.6062   14.2466 C.ar    1  UNL1        0.0538
     24 C          65.2093   92.2125   12.9114 C.ar    1  UNL1        0.0076
     25 C          64.1944   91.5668   12.0153 C.ar    1  UNL1        0.0378
     26 C          63.4949   90.3147   12.4544 C.ar    1  UNL1        0.1487
     27 C          63.8102   89.7083   13.7896 C.ar    1  UNL1        0.0378
     28 C          64.8251   90.3541   14.6857 C.ar    1  UNL1        0.0076
     29 C          68.9865   92.9938   15.6031 C.3     1  UNL1        0.1152
     30 N          67.9716   92.3481   14.7070 N.am    1  UNL1       -0.2726
     31 C          68.3888   91.7985   13.3751 C.3     1  UNL1        0.1152
     32 C          66.5396   92.2519   15.1428 C.2     1  UNL1        0.2491
     33 O          66.1224   92.8015   16.4746 O.2     1  UNL1       -0.2699
@<TRIPOS>BOND
     1    29    30    1
     2    30    31    1
     3    30    32   am
     4    32    33    2
     5    32    23    1
     6    23    24   ar
     7    24    25   ar
     8    25    26   ar
     9    26    22    1
    10    22     1    1
    11     1     2   ar
    12     2     3   ar
    13     3     7    1
    14     7     8   ar
    15     8     9   ar
    16     9    10   ar
    17    10    11    1
    18    10    12   ar
    19    12    13   ar
    20     3     4   ar
    21     4     5   ar
    22     5    16    1
    23    16    17    1
    24    17    18    1
    25    18    19    1
    26    19    20    1
    27    20    21    1
    28     5     6   ar
    29    26    27   ar
    30    27    28   ar
    31    28    23   ar
    32     6     1   ar
    33    13     7   ar
    34    21    16    1
    35    11    14    1
    36    11    15    1
@<TRIPOS>MOLECULE
*****
 33 36 0 0 0
SMALL
GASTEIGER

@<TRIPOS>ATOM
      1 C          62.2207   87.9646   11.7578 C.ar    1  UNL1        0.3283
      2 N          61.9816   87.4947   10.3535 N.ar    1  UNL1       -0.1746
      3 C          62.2205   86.0586    9.9922 C.ar    1  UNL1        0.1712
      4 N          62.6986   85.0924   11.0352 N.ar    1  UNL1       -0.1943
      5 C          62.9376   85.5622   12.4395 C.ar    1  UNL1        0.2255
      6 N          62.6987   86.9984   12.8008 N.ar    1  UNL1       -0.1607
      7 C          61.9814   85.5887    8.5879 C.ar    1  UNL1        0.0553
      8 C          63.0852   84.9213    7.8222 C.ar    1  UNL1        0.0075
      9 C          62.8462   84.4514    6.4179 C.ar    1  UNL1        0.0340
     10 C          61.5034   84.6490    5.7793 C.ar    1  UNL1        0.1254
     11 N          61.2643   84.1791    4.3750 N.pl3   1  UNL1       -0.3426
     12 N          60.3996   85.3164    6.5450 N.ar    1  UNL1       -0.2295
     13 C          60.6387   85.7863    7.9492 C.ar    1  UNL1        0.1033
     14 H          61.9887   83.7410    3.8724 H       1  UNL1        0.1437
     15 H          60.3830   84.3088    3.9558 H       1  UNL1        0.1437
     16 N          63.4157   84.5960   13.4825 N.pl3   1  UNL1       -0.2729
     17 C          63.9827   85.1063   14.7740 C.3     1  UNL1        0.1257
     18 C          64.4607   84.1400   15.8170 C.3     1  UNL1        0.1637
     19 O          64.3717   82.6635   15.5685 O.3     1  UNL1       -0.3501
     20 C          63.8046   82.1531   14.2770 C.3     1  UNL1        0.1637
     21 C          63.3266   83.1193   13.2340 C.3     1  UNL1        0.1257
     22 O          61.9818   89.4007   12.1191 O.3     1  UNL1       -0.4222
     23 C          64.9204   92.5608   10.8431 C.ar    1  UNL1        0.0538
     24 C          63.9066   92.0414    9.8672 C.ar    1  UNL1        0.0076
     25 C          62.9271   90.9881   10.2925 C.ar    1  UNL1        0.0378
     26 C          62.9613   90.4540   11.6938 C.ar    1  UNL1        0.1487
     27 C          63.9751   90.9734   12.6697 C.ar    1  UNL1        0.0378
     28 C          64.9546   92.0267   12.2444 C.ar    1  UNL1        0.0076
     29 C          68.2180   94.2696    9.4447 C.3     1  UNL1        0.1152
     30 N          67.2384   93.2163    9.8700 N.am    1  UNL1       -0.2726
     31 C          67.5974   91.7650    9.7474 C.3     1  UNL1        0.1152
     32 C          65.9000   93.6141   10.4178 C.2     1  UNL1        0.2491
     33 O          65.5411   95.0654   10.5403 O.2     1  UNL1       -0.2699
@<TRIPOS>BOND
     1    29    30    1
     2    30    31    1
     3    30    32   am
     4    32    33    2
     5    32    23    1
     6    23    24   ar
     7    24    25   ar
     8    25    26   ar
     9    26    22    1
    10    22     1    1
    11     1     2   ar
    12     2     3   ar
    13     3     7    1
    14     7     8   ar
    15     8     9   ar
    16     9    10   ar
    17    10    11    1
    18    10    12   ar
    19    12    13   ar
    20     3     4   ar
    21     4     5   ar
    22     5    16    1
    23    16    17    1
    24    17    18    1
    25    18    19    1
    26    19    20    1
    27    20    21    1
    28     5     6   ar
    29    26    27   ar
    30    27    28   ar
    31    28    23   ar
    32     6     1   ar
    33    13     7   ar
    34    21    16    1
    35    11    14    1
    36    11    15    1
@<TRIPOS>MOLECULE
*****
 33 36 0 0 0
SMALL
GASTEIGER

@<TRIPOS>ATOM
      1 C          62.7150   89.7503   11.8203 C.ar    1  UNL1        0.3283
      2 N          63.2224   88.6214   12.6679 N.ar    1  UNL1       -0.1746
      3 C          62.8566   87.2066   12.3299 C.ar    1  UNL1        0.1712
      4 N          61.9835   86.9204   11.1443 N.ar    1  UNL1       -0.1943
      5 C          61.4761   88.0492   10.2967 C.ar    1  UNL1        0.2255
      6 N          61.8419   89.4641   10.6346 N.ar    1  UNL1       -0.1607
      7 C          63.3640   86.0778   13.1776 C.ar    1  UNL1        0.0553
      8 C          64.2825   86.3591   14.3296 C.ar    1  UNL1        0.0075
      9 C          64.7898   85.2303   15.1773 C.ar    1  UNL1        0.0340
     10 C          64.3787   83.8203   14.8728 C.ar    1  UNL1        0.1254
     11 N          64.8860   82.6915   15.7205 N.pl3   1  UNL1       -0.3426
     12 N          63.4602   83.5390   13.7207 N.ar    1  UNL1       -0.2295
     13 C          62.9528   84.6677   12.8731 C.ar    1  UNL1        0.1033
     14 H          65.4889   82.8761   16.4766 H       1  UNL1        0.1437
     15 H          64.6162   81.7660   15.5206 H       1  UNL1        0.1437
     16 N          60.6030   87.7630    9.1110 N.pl3   1  UNL1       -0.2729
     17 C          59.9546   88.8926    8.3670 C.3     1  UNL1        0.1257
     18 C          59.0815   88.6065    7.1814 C.3     1  UNL1        0.1637
     19 O          58.8567   87.1908    6.7397 O.3     1  UNL1       -0.3501
     20 C          59.5051   86.0611    7.4837 C.3     1  UNL1        0.1637
     21 C          60.3782   86.3472    8.6694 C.3     1  UNL1        0.1257
     22 O          63.0808   91.1651   12.1583 O.3     1  UNL1       -0.4222
     23 C          67.2064   92.1202   13.6807 C.ar    1  UNL1        0.0538
     24 C          66.7574   92.6471   12.3500 C.ar    1  UNL1        0.0076
     25 C          65.3822   92.3288   11.8426 C.ar    1  UNL1        0.0378
     26 C          64.4560   91.4835   12.6658 C.ar    1  UNL1        0.1487
     27 C          64.9051   90.9566   13.9964 C.ar    1  UNL1        0.0378
     28 C          66.2802   91.2750   14.5039 C.ar    1  UNL1        0.0076
     29 C          70.1256   93.5349   15.9669 C.3     1  UNL1        0.1152
     30 N          68.7504   93.2165   15.4594 N.am    1  UNL1       -0.2726
     31 C          67.5441   93.6761   16.2233 C.3     1  UNL1        0.1152
     32 C          68.5816   92.4386   14.1881 C.2     1  UNL1        0.2491
     33 O          69.7879   91.9790   13.4243 O.2     1  UNL1       -0.2699
@<TRIPOS>BOND
     1    29    30    1
     2    30    31    1
     3    30    32   am
     4    32    33    2
     5    32    23    1
     6    23    24   ar
     7    24    25   ar
     8    25    26   ar
     9    26    22    1
    10    22     1    1
    11     1     2   ar
    12     2     3   ar
    13     3     7    1
    14     7     8   ar
    15     8     9   ar
    16     9    10   ar
    17    10    11    1
    18    10    12   ar
    19    12    13   ar
    20     3     4   ar
    21     4     5   ar
    22     5    16    1
    23    16    17    1
    24    17    18    1
    25    18    19    1
    26    19    20    1
    27    20    21    1
    28     5     6   ar
    29    26    27   ar
    30    27    28   ar
    31    28    23   ar
    32     6     1   ar
    33    13     7   ar
    34    21    16    1
    35    11    14    1
    36    11    15    1
