@<TRIPOS>MOLECULE
*****
 34 37 0 0 0
SMALL
GASTEIGER

@<TRIPOS>ATOM
      1 C          64.5506   85.6439   14.5436 C.2     1  UNL1        0.2015
      2 O          65.9822   85.2288   14.7111 O.2     1  UNL1       -0.2864
      3 C          63.9158   86.5673   15.5408 C.ar    1  UNL1        0.0611
      4 C          63.1176   86.1539   16.7416 C.ar    1  UNL1        0.1037
      5 N          62.6762   87.3973   17.4551 N.ar    1  UNL1       -0.2269
      6 C          63.2015   88.5791   16.6952 C.ar    1  UNL1        0.1407
      7 N          63.0812   90.0561   16.9277 N.ar    1  UNL1       -0.3374
      8 C          63.7271   91.0200   15.9771 C.ar    1  UNL1        0.0735
      9 C          64.4932   90.5069   14.7940 C.ar    1  UNL1        0.0201
     10 C          64.6135   89.0300   14.5614 C.ar    1  UNL1        0.0047
     11 C          63.9676   88.0661   15.5121 C.ar    1  UNL1        0.0386
     12 H          62.5784   90.3928   17.7043 H       1  UNL1        0.1674
     13 C          65.1391   91.4709   13.8434 C.ar    1  UNL1        0.0398
     14 C          64.5767   91.6557   12.4652 C.ar    1  UNL1        0.1022
     15 N          65.2226   92.6197   11.5145 N.ar    1  UNL1       -0.2224
     16 C          66.4308   93.3989   11.9422 C.ar    1  UNL1        0.1989
     17 N          66.9933   93.2141   13.3205 N.ar    1  UNL1       -0.2224
     18 C          66.3474   92.2501   14.2710 C.ar    1  UNL1        0.1022
     19 C          62.4230   85.5884   11.1939 C.ar    1  UNL1        0.0920
     20 C          62.1602   84.1187   11.0493 C.ar    1  UNL1        0.0204
     21 C          62.6942   83.1574   12.0695 C.ar    1  UNL1        0.0312
     22 C          63.4910   83.6657   13.2342 C.ar    1  UNL1        0.1454
     23 F          64.0249   82.7044   14.2544 F       1  UNL1       -0.2040
     24 C          63.7538   85.1354   13.3788 C.ar    1  UNL1        0.0951
     25 C          63.2198   86.0967   12.3586 C.ar    1  UNL1        0.1598
     26 F          63.4827   87.5665   12.5033 F       1  UNL1       -0.2026
     27 N          61.8890   86.5497   10.1737 N.pl3   1  UNL1       -0.2166
     28 H          61.7602   87.4968   10.4098 H       1  UNL1        0.1734
     29 S          61.5513   86.0681    8.7939 S.O2    1  UNL1        0.0540
     30 O          60.0982   86.3295    9.0583 O.2     1  UNL1       -0.1545
     31 O          63.0045   85.8067    8.5295 O.2     1  UNL1       -0.1545
     32 C          61.2138   85.5864    7.4141 C.3     1  UNL1        0.1724
     33 C          61.8020   84.0956    5.3691 C.3     1  UNL1        0.0019
     34 C          62.2175   84.7945    6.6296 C.3     1  UNL1        0.0273
@<TRIPOS>BOND
     1    33    34    1
     2    34    32    1
     3    32    29    1
     4    29    30    2
     5    29    31    2
     6    29    27    1
     7    27    19    1
     8    19    20   ar
     9    20    21   ar
    10    21    22   ar
    11    22    23    1
    12    22    24   ar
    13    24     1    1
    14     1     2    2
    15     1     3    1
    16     3     4   ar
    17     4     5   ar
    18     5     6   ar
    19     6     7   ar
    20     7     8   ar
    21     8     9   ar
    22     9    13    1
    23    13    14   ar
    24    14    15   ar
    25    15    16   ar
    26    16    17   ar
    27    17    18   ar
    28     9    10   ar
    29    10    11   ar
    30    24    25   ar
    31    25    26    1
    32    25    19   ar
    33    11     3   ar
    34    11     6    1
    35    18    13   ar
    36    27    28    1
    37     7    12    1
@<TRIPOS>MOLECULE
*****
 34 37 0 0 0
SMALL
GASTEIGER

@<TRIPOS>ATOM
      1 C          64.6649   85.6052   14.6822 C.2     1  UNL1        0.2015
      2 O          66.1444   85.3815   14.7861 O.2     1  UNL1       -0.2864
      3 C          63.9824   86.5563   15.6201 C.ar    1  UNL1        0.0611
      4 C          63.1564   86.1773   16.8135 C.ar    1  UNL1        0.1037
      5 N          62.6696   87.4402   17.4602 N.ar    1  UNL1       -0.2269
      6 C          63.1947   88.5996   16.6665 C.ar    1  UNL1        0.1407
      7 N          63.0389   90.0822   16.8323 N.ar    1  UNL1       -0.3374
      8 C          63.6944   91.0185   15.8610 C.ar    1  UNL1        0.0735
      9 C          64.5058   90.4722   14.7238 C.ar    1  UNL1        0.0201
     10 C          64.6616   88.9896   14.5579 C.ar    1  UNL1        0.0047
     11 C          64.0061   88.0533   15.5292 C.ar    1  UNL1        0.0386
     12 H          62.5064   90.4408   17.5787 H       1  UNL1        0.1674
     13 C          65.1613   91.4086   13.7524 C.ar    1  UNL1        0.0398
     14 C          66.4448   92.0925   14.1196 C.ar    1  UNL1        0.1022
     15 N          67.1003   93.0289   13.1483 N.ar    1  UNL1       -0.2224
     16 C          66.4723   93.2814   11.8097 C.ar    1  UNL1        0.1989
     17 N          65.1888   92.5975   11.4424 N.ar    1  UNL1       -0.2224
     18 C          64.5333   91.6611   12.4138 C.ar    1  UNL1        0.1022
     19 C          62.4691   84.9061   11.4511 C.ar    1  UNL1        0.0920
     20 C          62.2735   83.4226   11.5568 C.ar    1  UNL1        0.0204
     21 C          62.8751   82.6667   12.7043 C.ar    1  UNL1        0.0312
     22 C          63.6722   83.3942   13.7461 C.ar    1  UNL1        0.1454
     23 F          64.2737   82.6382   14.8936 F       1  UNL1       -0.2040
     24 C          63.8677   84.8776   13.6404 C.ar    1  UNL1        0.0951
     25 C          63.2662   85.6335   12.4929 C.ar    1  UNL1        0.1598
     26 F          63.4618   87.1170   12.3873 F       1  UNL1       -0.2026
     27 N          61.8676   85.6620   10.3036 N.pl3   1  UNL1       -0.2166
     28 H          61.6794   85.2004    9.4547 H       1  UNL1        0.1734
     29 S          61.5526   87.1213   10.4497 S.O2    1  UNL1        0.0540
     30 O          60.5939   86.8034   11.5586 O.2     1  UNL1       -0.1545
     31 O          62.5114   87.4391    9.3407 O.2     1  UNL1       -0.1545
     32 C          61.2378   88.5805   10.5956 C.3     1  UNL1        0.1724
     33 C          59.6160   90.4633   11.3539 C.3     1  UNL1        0.0019
     34 C          59.9870   89.0109   11.3030 C.3     1  UNL1        0.0273
@<TRIPOS>BOND
     1    33    34    1
     2    34    32    1
     3    32    29    1
     4    29    30    2
     5    29    31    2
     6    29    27    1
     7    27    19    1
     8    19    20   ar
     9    20    21   ar
    10    21    22   ar
    11    22    23    1
    12    22    24   ar
    13    24     1    1
    14     1     2    2
    15     1     3    1
    16     3     4   ar
    17     4     5   ar
    18     5     6   ar
    19     6     7   ar
    20     7     8   ar
    21     8     9   ar
    22     9    13    1
    23    13    14   ar
    24    14    15   ar
    25    15    16   ar
    26    16    17   ar
    27    17    18   ar
    28     9    10   ar
    29    10    11   ar
    30    24    25   ar
    31    25    26    1
    32    25    19   ar
    33    11     3   ar
    34    11     6    1
    35    18    13   ar
    36    27    28    1
    37     7    12    1
@<TRIPOS>MOLECULE
*****
 34 37 0 0 0
SMALL
GASTEIGER

@<TRIPOS>ATOM
      1 C          62.8076   90.2286   12.9481 C.2     1  UNL1        0.2015
      2 O          62.3643   89.8643   14.3339 O.2     1  UNL1       -0.2864
      3 C          61.9841   89.8159   11.7643 C.ar    1  UNL1        0.0611
      4 C          61.0910   90.7103   10.9565 C.ar    1  UNL1        0.1037
      5 N          60.4640   89.8834    9.8735 N.ar    1  UNL1       -0.2269
      6 C          60.9695   88.4779   10.0118 C.ar    1  UNL1        0.1407
      7 N          60.6957   87.2308    9.2247 N.ar    1  UNL1       -0.3374
      8 C          61.3614   85.9419    9.6062 C.ar    1  UNL1        0.0735
      9 C          62.3009   85.9002   10.7748 C.ar    1  UNL1        0.0201
     10 C          62.5746   87.1473   11.5619 C.ar    1  UNL1        0.0047
     11 C          61.9090   88.4362   11.1804 C.ar    1  UNL1        0.0386
     12 H          60.0791   87.2582    8.4577 H       1  UNL1        0.1674
     13 C          62.9666   84.6112   11.1562 C.ar    1  UNL1        0.0398
     14 C          62.8330   84.0830   12.5538 C.ar    1  UNL1        0.1022
     15 N          63.4987   82.7940   12.9352 N.ar    1  UNL1       -0.2224
     16 C          64.2979   82.0333   11.9191 C.ar    1  UNL1        0.1989
     17 N          64.4315   82.5615   10.5215 N.ar    1  UNL1       -0.2224
     18 C          63.7658   83.8504   10.1401 C.ar    1  UNL1        0.1022
     19 C          65.5844   92.4976   11.2476 C.ar    1  UNL1        0.0920
     20 C          66.6086   92.5601   12.3418 C.ar    1  UNL1        0.0204
     21 C          66.3657   91.8454   13.6381 C.ar    1  UNL1        0.0312
     22 C          65.0988   91.0683   13.8402 C.ar    1  UNL1        0.1454
     23 F          64.8560   90.3537   15.1365 F       1  UNL1       -0.2040
     24 C          64.0747   91.0058   12.7460 C.ar    1  UNL1        0.0951
     25 C          64.3175   91.7204   11.4497 C.ar    1  UNL1        0.1598
     26 F          63.2933   91.6579   10.3556 F       1  UNL1       -0.2026
     27 N          65.8273   93.2122    9.9513 N.pl3   1  UNL1       -0.2166
     28 H          65.5358   92.8061    9.1032 H       1  UNL1        0.1734
     29 S          66.5142   94.5457    9.9473 S.O2    1  UNL1        0.0540
     30 O          65.3120   95.1669   10.5945 O.2     1  UNL1       -0.1545
     31 O          67.7163   93.9244    9.3001 O.2     1  UNL1       -0.1545
     32 C          67.2012   95.8791    9.9432 C.3     1  UNL1        0.1724
     33 C          66.2944   96.8311    7.7023 C.3     1  UNL1        0.0019
     34 C          67.4353   96.5982    8.6478 C.3     1  UNL1        0.0273
@<TRIPOS>BOND
     1    33    34    1
     2    34    32    1
     3    32    29    1
     4    29    30    2
     5    29    31    2
     6    29    27    1
     7    27    19    1
     8    19    20   ar
     9    20    21   ar
    10    21    22   ar
    11    22    23    1
    12    22    24   ar
    13    24     1    1
    14     1     2    2
    15     1     3    1
    16     3     4   ar
    17     4     5   ar
    18     5     6   ar
    19     6     7   ar
    20     7     8   ar
    21     8     9   ar
    22     9    13    1
    23    13    14   ar
    24    14    15   ar
    25    15    16   ar
    26    16    17   ar
    27    17    18   ar
    28     9    10   ar
    29    10    11   ar
    30    24    25   ar
    31    25    26    1
    32    25    19   ar
    33    11     3   ar
    34    11     6    1
    35    18    13   ar
    36    27    28    1
    37     7    12    1
@<TRIPOS>MOLECULE
*****
 34 37 0 0 0
SMALL
GASTEIGER

@<TRIPOS>ATOM
      1 C          62.6731   85.5994    9.2260 C.2     1  UNL1        0.2015
      2 O          63.5365   85.4746    8.0058 O.2     1  UNL1       -0.2864
      3 C          61.5234   86.5628    9.2359 C.ar    1  UNL1        0.0611
      4 C          60.1419   86.2923    8.7177 C.ar    1  UNL1        0.1037
      5 N          59.3181   87.5281    8.9273 N.ar    1  UNL1       -0.2269
      6 C          60.1903   88.5624    9.5749 C.ar    1  UNL1        0.1407
      7 N          59.9195   89.9704   10.0157 N.ar    1  UNL1       -0.3374
      8 C          61.0117   90.7817   10.6471 C.ar    1  UNL1        0.0735
      9 C          62.3747   90.1851   10.8378 C.ar    1  UNL1        0.0201
     10 C          62.6454   88.7772   10.3971 C.ar    1  UNL1        0.0047
     11 C          61.5532   87.9658    9.7657 C.ar    1  UNL1        0.0386
     12 H          59.0249   90.3619    9.8905 H       1  UNL1        0.1674
     13 C          63.4669   90.9965   11.4693 C.ar    1  UNL1        0.0398
     14 C          63.7309   90.8821   12.9414 C.ar    1  UNL1        0.1022
     15 N          64.8231   91.6935   13.5729 N.ar    1  UNL1       -0.2224
     16 C          65.6513   92.6194   12.7322 C.ar    1  UNL1        0.1989
     17 N          65.3873   92.7339   11.2600 N.ar    1  UNL1       -0.2224
     18 C          64.2951   91.9224   10.6286 C.ar    1  UNL1        0.1022
     19 C          62.6060   84.2594   12.9610 C.ar    1  UNL1        0.0920
     20 C          63.5320   83.0839   12.8570 C.ar    1  UNL1        0.0204
     21 C          64.1717   82.7470   11.5428 C.ar    1  UNL1        0.0312
     22 C          63.8854   83.5854   10.3325 C.ar    1  UNL1        0.1454
     23 F          64.5252   83.2485    9.0182 F       1  UNL1       -0.2040
     24 C          62.9594   84.7609   10.4364 C.ar    1  UNL1        0.0951
     25 C          62.3197   85.0978   11.7506 C.ar    1  UNL1        0.1598
     26 F          61.3937   86.2733   11.8544 F       1  UNL1       -0.2026
     27 N          61.9663   84.5963   14.2752 N.pl3   1  UNL1       -0.2166
     28 H          61.0066   84.4257   14.4137 H       1  UNL1        0.1734
     29 S          62.7887   85.1933   15.3785 S.O2    1  UNL1        0.0540
     30 O          63.4361   86.1212   14.3937 O.2     1  UNL1       -0.1545
     31 O          62.1413   84.2654   16.3632 O.2     1  UNL1       -0.1545
     32 C          63.6111   85.7902   16.4818 C.3     1  UNL1        0.1724
     33 C          63.0381   88.2309   17.1638 C.3     1  UNL1        0.0019
     34 C          62.9870   86.7580   17.4430 C.3     1  UNL1        0.0273
@<TRIPOS>BOND
     1    33    34    1
     2    34    32    1
     3    32    29    1
     4    29    30    2
     5    29    31    2
     6    29    27    1
     7    27    19    1
     8    19    20   ar
     9    20    21   ar
    10    21    22   ar
    11    22    23    1
    12    22    24   ar
    13    24     1    1
    14     1     2    2
    15     1     3    1
    16     3     4   ar
    17     4     5   ar
    18     5     6   ar
    19     6     7   ar
    20     7     8   ar
    21     8     9   ar
    22     9    13    1
    23    13    14   ar
    24    14    15   ar
    25    15    16   ar
    26    16    17   ar
    27    17    18   ar
    28     9    10   ar
    29    10    11   ar
    30    24    25   ar
    31    25    26    1
    32    25    19   ar
    33    11     3   ar
    34    11     6    1
    35    18    13   ar
    36    27    28    1
    37     7    12    1
@<TRIPOS>MOLECULE
*****
 34 37 0 0 0
SMALL
GASTEIGER

@<TRIPOS>ATOM
      1 C          62.4275   89.7612   11.7895 C.2     1  UNL1        0.2015
      2 O          61.8159   90.7412   10.8328 O.2     1  UNL1       -0.2864
      3 C          63.2153   90.2543   12.9669 C.ar    1  UNL1        0.0611
      4 C          63.0617   89.7932   14.3860 C.ar    1  UNL1        0.1037
      5 N          64.0465   90.5490   15.2280 N.ar    1  UNL1       -0.2269
      6 C          64.8087   91.4772   14.3294 C.ar    1  UNL1        0.1407
      7 N          65.9041   92.4646   14.6030 N.ar    1  UNL1       -0.3374
      8 C          66.4858   93.2699   13.4792 C.ar    1  UNL1        0.0735
      9 C          65.9721   93.0878   12.0817 C.ar    1  UNL1        0.0201
     10 C          64.8767   92.1003   11.8081 C.ar    1  UNL1        0.0047
     11 C          64.2950   91.2950   12.9319 C.ar    1  UNL1        0.0386
     12 H          66.2413   92.5842   15.5202 H       1  UNL1        0.1674
     13 C          66.5538   93.8932   10.9578 C.ar    1  UNL1        0.0398
     14 C          67.2730   93.2049    9.8358 C.ar    1  UNL1        0.1022
     15 N          67.8548   94.0102    8.7120 N.ar    1  UNL1       -0.2224
     16 C          67.7173   95.5039    8.7102 C.ar    1  UNL1        0.1989
     17 N          66.9981   96.1922    9.8323 N.ar    1  UNL1       -0.2224
     18 C          66.4164   95.3869   10.9561 C.ar    1  UNL1        0.1022
     19 C          62.9049   85.8356   12.1247 C.ar    1  UNL1        0.0920
     20 C          61.8990   85.3416   11.1276 C.ar    1  UNL1        0.0204
     21 C          61.0692   86.3208   10.3513 C.ar    1  UNL1        0.0312
     22 C          61.2454   87.7939   10.5718 C.ar    1  UNL1        0.1454
     23 F          60.4157   88.7731    9.7955 F       1  UNL1       -0.2040
     24 C          62.2513   88.2879   11.5689 C.ar    1  UNL1        0.0951
     25 C          63.0810   87.3088   12.3453 C.ar    1  UNL1        0.1598
     26 F          64.0870   87.8029   13.3423 F       1  UNL1       -0.2026
     27 N          63.7346   84.8564   12.9011 N.pl3   1  UNL1       -0.2166
     28 H          64.7166   84.9261   12.8905 H       1  UNL1        0.1734
     29 S          63.0682   83.7712   13.6935 S.O2    1  UNL1        0.0540
     30 O          62.4160   84.8058   14.5619 O.2     1  UNL1       -0.1545
     31 O          63.7204   82.7366   12.8251 O.2     1  UNL1       -0.1545
     32 C          62.4018   82.6859   14.4859 C.3     1  UNL1        0.1724
     33 C          60.6772   80.7808   14.1025 C.3     1  UNL1        0.0019
     34 C          62.0135   81.4001   13.8180 C.3     1  UNL1        0.0273
@<TRIPOS>BOND
     1    33    34    1
     2    34    32    1
     3    32    29    1
     4    29    30    2
     5    29    31    2
     6    29    27    1
     7    27    19    1
     8    19    20   ar
     9    20    21   ar
    10    21    22   ar
    11    22    23    1
    12    22    24   ar
    13    24     1    1
    14     1     2    2
    15     1     3    1
    16     3     4   ar
    17     4     5   ar
    18     5     6   ar
    19     6     7   ar
    20     7     8   ar
    21     8     9   ar
    22     9    13    1
    23    13    14   ar
    24    14    15   ar
    25    15    16   ar
    26    16    17   ar
    27    17    18   ar
    28     9    10   ar
    29    10    11   ar
    30    24    25   ar
    31    25    26    1
    32    25    19   ar
    33    11     3   ar
    34    11     6    1
    35    18    13   ar
    36    27    28    1
    37     7    12    1
@<TRIPOS>MOLECULE
*****
 34 37 0 0 0
SMALL
GASTEIGER

@<TRIPOS>ATOM
      1 C          61.2935   89.8496   11.7741 C.2     1  UNL1        0.2015
      2 O          60.2847   89.8739   12.8839 O.2     1  UNL1       -0.2864
      3 C          60.9600   89.1842   10.4718 C.ar    1  UNL1        0.0611
      4 C          60.1886   89.7971    9.3407 C.ar    1  UNL1        0.1037
      5 N          60.0912   88.7808    8.2418 N.ar    1  UNL1       -0.2269
      6 C          60.8024   87.5398    8.6937 C.ar    1  UNL1        0.1407
      7 N          61.0304   86.2150    8.0283 N.ar    1  UNL1       -0.3374
      8 C          61.7953   85.1395    8.7411 C.ar    1  UNL1        0.0735
      9 C          62.3323   85.3888   10.1193 C.ar    1  UNL1        0.0201
     10 C          62.1043   86.7137   10.7848 C.ar    1  UNL1        0.0047
     11 C          61.3393   87.7891   10.0719 C.ar    1  UNL1        0.0386
     12 H          60.6780   86.0514    7.1237 H       1  UNL1        0.1674
     13 C          63.0973   84.3133   10.8321 C.ar    1  UNL1        0.0398
     14 C          63.9478   83.3552   10.0520 C.ar    1  UNL1        0.1022
     15 N          64.7128   82.2797   10.7648 N.ar    1  UNL1       -0.2224
     16 C          64.6272   82.1622   12.2578 C.ar    1  UNL1        0.1989
     17 N          63.7765   83.1203   13.0379 N.ar    1  UNL1       -0.2224
     18 C          63.0116   84.1958   12.3251 C.ar    1  UNL1        0.1022
     19 C          64.6980   90.9866   13.4674 C.ar    1  UNL1        0.0920
     20 C          65.3207   91.7727   12.3519 C.ar    1  UNL1        0.0204
     21 C          64.6010   91.9177   11.0438 C.ar    1  UNL1        0.0312
     22 C          63.2586   91.2767   10.8512 C.ar    1  UNL1        0.1454
     23 F          62.5390   91.4217    9.5431 F       1  UNL1       -0.2040
     24 C          62.6359   90.4906   11.9667 C.ar    1  UNL1        0.0951
     25 C          63.3556   90.3456   13.2748 C.ar    1  UNL1        0.1598
     26 F          62.7328   89.5596   14.3903 F       1  UNL1       -0.2026
     27 N          65.4176   90.8416   14.7755 N.pl3   1  UNL1       -0.2166
     28 H          65.3527   90.0001   15.2824 H       1  UNL1        0.1734
     29 S          66.2361   91.9787   15.3112 S.O2    1  UNL1        0.0540
     30 O          64.9855   92.6513   15.7945 O.2     1  UNL1       -0.1545
     31 O          67.4868   91.3061   14.8279 O.2     1  UNL1       -0.1545
     32 C          67.0547   93.1157   15.8469 C.3     1  UNL1        0.1724
     33 C          69.3518   94.3056   16.0882 C.3     1  UNL1        0.0019
     34 C          68.5470   93.1024   15.6949 C.3     1  UNL1        0.0273
@<TRIPOS>BOND
     1    33    34    1
     2    34    32    1
     3    32    29    1
     4    29    30    2
     5    29    31    2
     6    29    27    1
     7    27    19    1
     8    19    20   ar
     9    20    21   ar
    10    21    22   ar
    11    22    23    1
    12    22    24   ar
    13    24     1    1
    14     1     2    2
    15     1     3    1
    16     3     4   ar
    17     4     5   ar
    18     5     6   ar
    19     6     7   ar
    20     7     8   ar
    21     8     9   ar
    22     9    13    1
    23    13    14   ar
    24    14    15   ar
    25    15    16   ar
    26    16    17   ar
    27    17    18   ar
    28     9    10   ar
    29    10    11   ar
    30    24    25   ar
    31    25    26    1
    32    25    19   ar
    33    11     3   ar
    34    11     6    1
    35    18    13   ar
    36    27    28    1
    37     7    12    1
@<TRIPOS>MOLECULE
*****
 34 37 0 0 0
SMALL
GASTEIGER

@<TRIPOS>ATOM
      1 C          62.5438   89.7749   11.8064 C.2     1  UNL1        0.2015
      2 O          61.9605   90.7198   10.7980 O.2     1  UNL1       -0.2864
      3 C          63.3115   90.3095   12.9790 C.ar    1  UNL1        0.0611
      4 C          63.1637   89.8681   14.4049 C.ar    1  UNL1        0.1037
      5 N          64.1227   90.6651   15.2386 N.ar    1  UNL1       -0.2269
      6 C          64.8632   91.5991   14.3279 C.ar    1  UNL1        0.1407
      7 N          65.9293   92.6212   14.5899 N.ar    1  UNL1       -0.3374
      8 C          66.4940   93.4236   13.4553 C.ar    1  UNL1        0.0735
      9 C          65.9926   93.2038   12.0587 C.ar    1  UNL1        0.0201
     10 C          64.9266   92.1816   11.7968 C.ar    1  UNL1        0.0047
     11 C          64.3619   91.3793   12.9313 C.ar    1  UNL1        0.0386
     12 H          66.2583   92.7655   15.5065 H       1  UNL1        0.1674
     13 C          66.5574   94.0062   10.9241 C.ar    1  UNL1        0.0398
     14 C          66.4453   95.5020   10.9346 C.ar    1  UNL1        0.1022
     15 N          67.0100   96.3044    9.8000 N.ar    1  UNL1       -0.2224
     16 C          67.6869   95.6110    8.6550 C.ar    1  UNL1        0.1989
     17 N          67.7990   94.1152    8.6446 N.ar    1  UNL1       -0.2224
     18 C          67.2342   93.3128    9.7791 C.ar    1  UNL1        0.1022
     19 C          62.9794   85.8627   12.3114 C.ar    1  UNL1        0.0920
     20 C          61.9902   85.3363   11.3141 C.ar    1  UNL1        0.0204
     21 C          61.1856   86.2894   10.4810 C.ar    1  UNL1        0.0312
     22 C          61.3701   87.7689   10.6450 C.ar    1  UNL1        0.1454
     23 F          60.5655   88.7221    9.8119 F       1  UNL1       -0.2040
     24 C          62.3592   88.2953   11.6423 C.ar    1  UNL1        0.0951
     25 C          63.1638   87.3422   12.4755 C.ar    1  UNL1        0.1598
     26 F          64.1530   87.8687   13.4727 F       1  UNL1       -0.2026
     27 N          63.7840   84.9095   13.1445 N.pl3   1  UNL1       -0.2166
     28 H          64.2881   84.1827   12.7124 H       1  UNL1        0.1734
     29 S          63.8205   85.0639   14.6361 S.O2    1  UNL1        0.0540
     30 O          65.3051   85.2700   14.5785 O.2     1  UNL1       -0.1545
     31 O          62.3358   84.8578   14.6938 O.2     1  UNL1       -0.1545
     32 C          63.8569   85.2182   16.1277 C.3     1  UNL1        0.1724
     33 C          62.8587   87.2922   17.3329 C.3     1  UNL1        0.0019
     34 C          62.7166   85.8823   16.8410 C.3     1  UNL1        0.0273
@<TRIPOS>BOND
     1    33    34    1
     2    34    32    1
     3    32    29    1
     4    29    30    2
     5    29    31    2
     6    29    27    1
     7    27    19    1
     8    19    20   ar
     9    20    21   ar
    10    21    22   ar
    11    22    23    1
    12    22    24   ar
    13    24     1    1
    14     1     2    2
    15     1     3    1
    16     3     4   ar
    17     4     5   ar
    18     5     6   ar
    19     6     7   ar
    20     7     8   ar
    21     8     9   ar
    22     9    13    1
    23    13    14   ar
    24    14    15   ar
    25    15    16   ar
    26    16    17   ar
    27    17    18   ar
    28     9    10   ar
    29    10    11   ar
    30    24    25   ar
    31    25    26    1
    32    25    19   ar
    33    11     3   ar
    34    11     6    1
    35    18    13   ar
    36    27    28    1
    37     7    12    1
@<TRIPOS>MOLECULE
*****
 34 37 0 0 0
SMALL
GASTEIGER

@<TRIPOS>ATOM
      1 C          63.7545   89.3405   14.1497 C.2     1  UNL1        0.2015
      2 O          63.7366   88.0674   14.9426 O.2     1  UNL1       -0.2864
      3 C          63.0716   89.4030   12.8156 C.ar    1  UNL1        0.0611
      4 C          62.5546   90.6422   12.1470 C.ar    1  UNL1        0.1037
      5 N          61.9493   90.2422   10.8341 N.ar    1  UNL1       -0.2269
      6 C          62.0922   88.7559   10.6913 C.ar    1  UNL1        0.1407
      7 N          61.6804   87.8078    9.6044 N.ar    1  UNL1       -0.3374
      8 C          61.9622   86.3410    9.7422 C.ar    1  UNL1        0.0735
      9 C          62.6559   85.8223   10.9668 C.ar    1  UNL1        0.0201
     10 C          63.0677   86.7704   12.0537 C.ar    1  UNL1        0.0047
     11 C          62.7859   88.2372   11.9160 C.ar    1  UNL1        0.0386
     12 H          61.2251   88.1482    8.8006 H       1  UNL1        0.1674
     13 C          62.9377   84.3554   11.1045 C.ar    1  UNL1        0.0398
     14 C          63.7917   83.6571   10.0882 C.ar    1  UNL1        0.1022
     15 N          64.0736   82.1902   10.2259 N.ar    1  UNL1       -0.2224
     16 C          63.5013   81.4217   11.3800 C.ar    1  UNL1        0.1989
     17 N          62.6472   82.1201   12.3964 N.ar    1  UNL1       -0.2224
     18 C          62.3654   83.5869   12.2586 C.ar    1  UNL1        0.1022
     19 C          66.1174   92.5218   14.3664 C.ar    1  UNL1        0.0920
     20 C          65.8572   92.9728   15.7732 C.ar    1  UNL1        0.0204
     21 C          64.8962   92.2130   16.6387 C.ar    1  UNL1        0.0312
     22 C          64.1953   91.0023   16.0976 C.ar    1  UNL1        0.1454
     23 F          63.2343   90.2426   16.9632 F       1  UNL1       -0.2040
     24 C          64.4554   90.5513   14.6909 C.ar    1  UNL1        0.0951
     25 C          65.4165   91.3111   13.8253 C.ar    1  UNL1        0.1598
     26 F          65.6766   90.8600   12.4186 F       1  UNL1       -0.2026
     27 N          67.0784   93.2815   13.5009 N.pl3   1  UNL1       -0.2166
     28 H          67.7224   93.9042   13.9093 H       1  UNL1        0.1734
     29 S          67.0583   93.0926   12.0130 S.O2    1  UNL1        0.0540
     30 O          68.2258   92.1565   12.1160 O.2     1  UNL1       -0.1545
     31 O          65.8907   94.0287   11.9099 O.2     1  UNL1       -0.1545
     32 C          67.0380   92.9037   10.5251 C.3     1  UNL1        0.1724
     33 C          68.7509   92.3992    8.6378 C.3     1  UNL1        0.0019
     34 C          68.0166   91.9718    9.8740 C.3     1  UNL1        0.0273
@<TRIPOS>BOND
     1    33    34    1
     2    34    32    1
     3    32    29    1
     4    29    30    2
     5    29    31    2
     6    29    27    1
     7    27    19    1
     8    19    20   ar
     9    20    21   ar
    10    21    22   ar
    11    22    23    1
    12    22    24   ar
    13    24     1    1
    14     1     2    2
    15     1     3    1
    16     3     4   ar
    17     4     5   ar
    18     5     6   ar
    19     6     7   ar
    20     7     8   ar
    21     8     9   ar
    22     9    13    1
    23    13    14   ar
    24    14    15   ar
    25    15    16   ar
    26    16    17   ar
    27    17    18   ar
    28     9    10   ar
    29    10    11   ar
    30    24    25   ar
    31    25    26    1
    32    25    19   ar
    33    11     3   ar
    34    11     6    1
    35    18    13   ar
    36    27    28    1
    37     7    12    1
@<TRIPOS>MOLECULE
*****
 34 37 0 0 0
SMALL
GASTEIGER

@<TRIPOS>ATOM
      1 C          61.1804   89.3632   11.8330 C.2     1  UNL1        0.2015
      2 O          60.0027   89.8036   12.6507 O.2     1  UNL1       -0.2864
      3 C          61.0857   88.1293   10.9853 C.ar    1  UNL1        0.0611
      4 C          61.4833   86.7432   11.3983 C.ar    1  UNL1        0.1037
      5 N          61.2200   85.8222   10.2439 N.ar    1  UNL1       -0.2269
      6 C          60.6597   86.6391    9.1175 C.ar    1  UNL1        0.1407
      7 N          60.2144   86.2688    7.7339 N.ar    1  UNL1       -0.3374
      8 C          59.6861   87.3244    6.8084 C.ar    1  UNL1        0.0735
      9 C          59.6031   88.7503    7.2666 C.ar    1  UNL1        0.0201
     10 C          60.0484   89.1206    8.6503 C.ar    1  UNL1        0.0047
     11 C          60.5767   88.0650    9.5757 C.ar    1  UNL1        0.0386
     12 H          60.2689   85.3330    7.4332 H       1  UNL1        0.1674
     13 C          59.0747   89.8060    6.3411 C.ar    1  UNL1        0.0398
     14 C          57.5949   90.0028    6.1948 C.ar    1  UNL1        0.1022
     15 N          57.0666   91.0585    5.2693 N.ar    1  UNL1       -0.2224
     16 C          58.0181   91.9172    4.4900 C.ar    1  UNL1        0.1989
     17 N          59.4979   91.7203    4.6363 N.ar    1  UNL1       -0.2224
     18 C          60.0262   90.6647    5.5618 C.ar    1  UNL1        0.1022
     19 C          64.5971   90.9241   13.1137 C.ar    1  UNL1        0.0920
     20 C          64.9983   91.7435   11.9230 C.ar    1  UNL1        0.0204
     21 C          64.1269   91.7694   10.7024 C.ar    1  UNL1        0.0312
     22 C          62.8543   90.9760   10.6723 C.ar    1  UNL1        0.1454
     23 F          61.9829   91.0019    9.4517 F       1  UNL1       -0.2040
     24 C          62.4531   90.1567   11.8630 C.ar    1  UNL1        0.0951
     25 C          63.3245   90.1307   13.0837 C.ar    1  UNL1        0.1598
     26 F          62.9232   89.3114   14.2743 F       1  UNL1       -0.2026
     27 N          65.4685   90.8982   14.3344 N.pl3   1  UNL1       -0.2166
     28 H          65.4905   90.0974   14.9065 H       1  UNL1        0.1734
     29 S          66.3063   92.0925   14.6832 S.O2    1  UNL1        0.0540
     30 O          67.4226   91.5567   13.8366 O.2     1  UNL1       -0.1545
     31 O          65.1900   92.6283   15.5298 O.2     1  UNL1       -0.1545
     32 C          67.1440   93.2868   15.0321 C.3     1  UNL1        0.1724
     33 C          69.2873   94.2822   16.1120 C.3     1  UNL1        0.0019
     34 C          68.3583   93.1242   15.8978 C.3     1  UNL1        0.0273
@<TRIPOS>BOND
     1    33    34    1
     2    34    32    1
     3    32    29    1
     4    29    30    2
     5    29    31    2
     6    29    27    1
     7    27    19    1
     8    19    20   ar
     9    20    21   ar
    10    21    22   ar
    11    22    23    1
    12    22    24   ar
    13    24     1    1
    14     1     2    2
    15     1     3    1
    16     3     4   ar
    17     4     5   ar
    18     5     6   ar
    19     6     7   ar
    20     7     8   ar
    21     8     9   ar
    22     9    13    1
    23    13    14   ar
    24    14    15   ar
    25    15    16   ar
    26    16    17   ar
    27    17    18   ar
    28     9    10   ar
    29    10    11   ar
    30    24    25   ar
    31    25    26    1
    32    25    19   ar
    33    11     3   ar
    34    11     6    1
    35    18    13   ar
    36    27    28    1
    37     7    12    1
