@<TRIPOS>MOLECULE
*****
 32 36 0 0 0
SMALL
GASTEIGER

@<TRIPOS>ATOM
      1 C          63.1404   88.9567   11.8136 C.ar    1  UNL1        0.1074
      2 C          62.3913   89.6976   10.7460 C.ar    1  UNL1        0.0588
      3 S          62.8573   91.1233   10.7572 S.2     1  UNL1       -0.0508
      4 C          63.8945   91.2635   11.8317 C.ar    1  UNL1        0.1646
      5 N          64.0694   89.9245   12.4846 N.ar    1  UNL1       -0.2224
      6 C          63.4506   85.5016   13.7414 C.ar    1  UNL1        0.2416
      7 N          63.6036   86.9551   13.4040 N.ar    1  UNL1       -0.2089
      8 C          62.9873   87.5032   12.1511 C.ar    1  UNL1        0.1026
      9 C          62.2179   86.5977   11.2355 C.ar    1  UNL1        0.0224
     10 C          62.0648   85.1441   11.5729 C.ar    1  UNL1        0.0239
     11 C          62.6812   84.5961   12.8259 C.ar    1  UNL1        0.1189
     12 N          62.5281   83.1426   13.1633 N.ar    1  UNL1       -0.2826
     13 C          62.1159   82.5849   14.4933 C.ar    1  UNL1        0.1826
     14 N          62.0934   81.0892   14.3819 N.ar    1  UNL1       -0.2280
     15 C          62.4917   80.7226   12.9830 C.ar    1  UNL1        0.0786
     16 C          62.6020   79.3311   12.4337 C.3     1  UNL1        0.0538
     17 C          62.7604   81.9916   12.2299 C.ar    1  UNL1        0.0963
     18 C          63.7633   85.5882   16.3191 C.3     1  UNL1        0.2543
     19 O          64.0669   84.9536   14.9943 O.3     1  UNL1       -0.4551
     20 N          64.6280   92.5219   12.1904 N.pl3   1  UNL1       -0.2786
     21 H          64.1786   93.3940   12.1083 H       1  UNL1        0.1555
     22 C          66.0461   92.4514   12.6740 C.ar    1  UNL1        0.1276
     23 C          66.4913   92.4719   14.1063 C.ar    1  UNL1        0.0244
     24 C          67.9884   92.3813   14.1278 C.ar    1  UNL1        0.0773
     25 N          68.4685   92.3047   12.7088 N.ar    1  UNL1       -0.1728
     26 N          67.2682   92.3480   11.8102 N.ar    1  UNL1       -0.2354
     27 C          68.4335   92.4018   15.5601 C.3     1  UNL1        0.0477
     28 C          67.2115   92.5052   16.4238 C.3     1  UNL1        0.0112
     29 C          66.0111   92.5485   15.5253 C.3     1  UNL1        0.0308
     30 C          67.2866   92.2970   10.3113 C.3     1  UNL1        0.1668
     31 C          68.5294   92.6786    9.5630 C.3     1  UNL1        0.2195
     32 F          68.8885   91.9664    8.2928 F       1  UNL1       -0.2321
@<TRIPOS>BOND
     1    18    19    1
     2    19     6    1
     3     6     7   ar
     4     7     8   ar
     5     8     1    1
     6     1     2   ar
     7     2     3   ar
     8     3     4   ar
     9     4    20    1
    10    20    22    1
    11    22    23   ar
    12    23    24   ar
    13    24    25   ar
    14    25    26   ar
    15    26    30    1
    16    30    31    1
    17    31    32    1
    18    24    27    1
    19    27    28    1
    20    28    29    1
    21     4     5   ar
    22     8     9   ar
    23     9    10   ar
    24    10    11   ar
    25    11    12    1
    26    12    13   ar
    27    13    14   ar
    28    14    15   ar
    29    15    16    1
    30    15    17   ar
    31    11     6   ar
    32    17    12   ar
    33     5     1   ar
    34    26    22   ar
    35    29    23    1
    36    20    21    1
@<TRIPOS>MOLECULE
*****
 32 36 0 0 0
SMALL
GASTEIGER

@<TRIPOS>ATOM
      1 C          64.2296   89.2802   14.3397 C.ar    1  UNL1        0.1074
      2 C          63.7223   89.2564   15.7510 C.ar    1  UNL1        0.0588
      3 S          63.3576   87.8411   16.0886 S.2     1  UNL1       -0.0508
      4 C          63.6396   86.9903   14.8859 C.ar    1  UNL1        0.1646
      5 N          64.1785   87.8797   13.8050 N.ar    1  UNL1       -0.2224
      6 C          66.3600   92.4798   13.3526 C.ar    1  UNL1        0.2416
      7 N          65.8850   91.2681   14.0984 N.ar    1  UNL1       -0.2089
      8 C          64.7047   90.4919   13.5939 C.ar    1  UNL1        0.1026
      9 C          63.9994   90.9274   12.3436 C.ar    1  UNL1        0.0224
     10 C          64.4745   92.1391   11.5979 C.ar    1  UNL1        0.0239
     11 C          65.6548   92.9153   12.1023 C.ar    1  UNL1        0.1189
     12 N          66.1298   94.1269   11.3566 N.ar    1  UNL1       -0.2826
     13 C          66.1589   95.5311   11.8832 C.ar    1  UNL1        0.1826
     14 N          66.7063   96.4191   10.8054 N.ar    1  UNL1       -0.2280
     15 C          67.0154   95.5638    9.6126 C.ar    1  UNL1        0.0786
     16 C          67.5815   96.0413    8.3081 C.3     1  UNL1        0.0538
     17 C          66.6592   94.1472    9.9532 C.ar    1  UNL1        0.0963
     18 C          67.7427   93.4389   15.3320 C.3     1  UNL1        0.2543
     19 O          67.5403   93.2560   13.8571 O.3     1  UNL1       -0.4551
     20 N          63.4210   85.5099   14.7822 N.pl3   1  UNL1       -0.2786
     21 H          63.4520   84.9499   15.5914 H       1  UNL1        0.1555
     22 C          63.1552   84.8827   13.4458 C.ar    1  UNL1        0.1276
     23 C          62.7442   85.6069   12.1981 C.ar    1  UNL1        0.0244
     24 C          62.5888   84.5931   11.1036 C.ar    1  UNL1        0.0773
     25 N          62.9037   83.2423   11.6748 N.ar    1  UNL1       -0.1728
     26 N          63.2539   83.4213   13.1224 N.ar    1  UNL1       -0.2354
     27 C          62.1777   85.3172    9.8559 C.3     1  UNL1        0.0477
     28 C          62.0791   86.7786   10.1794 C.3     1  UNL1        0.0112
     29 C          62.4292   86.9576   11.6270 C.3     1  UNL1        0.0308
     30 C          63.6355   82.3305   14.0785 C.3     1  UNL1        0.1668
     31 C          63.2240   80.9144   13.8039 C.3     1  UNL1        0.2195
     32 F          61.8252   80.6136   13.3539 F       1  UNL1       -0.2321
@<TRIPOS>BOND
     1    18    19    1
     2    19     6    1
     3     6     7   ar
     4     7     8   ar
     5     8     1    1
     6     1     2   ar
     7     2     3   ar
     8     3     4   ar
     9     4    20    1
    10    20    22    1
    11    22    23   ar
    12    23    24   ar
    13    24    25   ar
    14    25    26   ar
    15    26    30    1
    16    30    31    1
    17    31    32    1
    18    24    27    1
    19    27    28    1
    20    28    29    1
    21     4     5   ar
    22     8     9   ar
    23     9    10   ar
    24    10    11   ar
    25    11    12    1
    26    12    13   ar
    27    13    14   ar
    28    14    15   ar
    29    15    16    1
    30    15    17   ar
    31    11     6   ar
    32    17    12   ar
    33     5     1   ar
    34    26    22   ar
    35    29    23    1
    36    20    21    1
@<TRIPOS>MOLECULE
*****
 32 36 0 0 0
SMALL
GASTEIGER

@<TRIPOS>ATOM
      1 C          61.9897   89.8652   12.1755 C.ar    1  UNL1        0.1074
      2 C          60.6256   90.4775   12.2944 C.ar    1  UNL1        0.0588
      3 S          59.6416   89.5460   11.6509 S.2     1  UNL1       -0.0508
      4 C          60.3977   88.3580   11.1342 C.ar    1  UNL1        0.1646
      5 N          61.8488   88.5553   11.4584 N.ar    1  UNL1       -0.2224
      6 C          65.1876   92.1975   12.4639 C.ar    1  UNL1        0.2416
      7 N          63.9074   91.6041   11.9551 N.ar    1  UNL1       -0.2089
      8 C          63.2699   90.4587   12.6842 C.ar    1  UNL1        0.1026
      9 C          63.9126   89.9068   13.9222 C.ar    1  UNL1        0.0224
     10 C          65.1928   90.5002   14.4310 C.ar    1  UNL1        0.0239
     11 C          65.8304   91.6456   13.7018 C.ar    1  UNL1        0.1189
     12 N          67.1106   92.2391   14.2106 N.ar    1  UNL1       -0.2826
     13 C          68.4922   91.8850   13.7463 C.ar    1  UNL1        0.1826
     14 N          69.4694   92.7179   14.5217 N.ar    1  UNL1       -0.2280
     15 C          68.6917   93.5867   15.4653 C.ar    1  UNL1        0.0786
     16 C          69.2703   94.5775   16.4316 C.3     1  UNL1        0.0538
     17 C          67.2339   93.2907   15.2730 C.ar    1  UNL1        0.0963
     18 C          66.4138   93.1297   10.3717 C.3     1  UNL1        0.2543
     19 O          65.8252   93.3429   11.7348 O.3     1  UNL1       -0.4551
     20 N          59.8064   87.1795   10.4189 N.pl3   1  UNL1       -0.2786
     21 H          58.8786   86.9065   10.6032 H       1  UNL1        0.1555
     22 C          60.6287   86.4170    9.4227 C.ar    1  UNL1        0.1276
     23 C          61.7950   85.5281    9.7382 C.ar    1  UNL1        0.0244
     24 C          62.3162   84.9712    8.4466 C.ar    1  UNL1        0.0773
     25 N          61.4720   85.5159    7.3328 N.ar    1  UNL1       -0.1728
     26 N          60.4290   86.4095    7.9360 N.ar    1  UNL1       -0.2354
     27 C          63.4825   84.0823    8.7621 C.3     1  UNL1        0.0477
     28 C          63.6821   84.0898   10.2488 C.3     1  UNL1        0.0112
     29 C          62.6392   84.9834   10.8520 C.3     1  UNL1        0.0308
     30 C          59.3721   87.1631    7.1846 C.3     1  UNL1        0.1668
     31 C          59.3216   88.6605    7.2600 C.3     1  UNL1        0.2195
     32 F          59.0379   89.4645    6.0260 F       1  UNL1       -0.2321
@<TRIPOS>BOND
     1    18    19    1
     2    19     6    1
     3     6     7   ar
     4     7     8   ar
     5     8     1    1
     6     1     2   ar
     7     2     3   ar
     8     3     4   ar
     9     4    20    1
    10    20    22    1
    11    22    23   ar
    12    23    24   ar
    13    24    25   ar
    14    25    26   ar
    15    26    30    1
    16    30    31    1
    17    31    32    1
    18    24    27    1
    19    27    28    1
    20    28    29    1
    21     4     5   ar
    22     8     9   ar
    23     9    10   ar
    24    10    11   ar
    25    11    12    1
    26    12    13   ar
    27    13    14   ar
    28    14    15   ar
    29    15    16    1
    30    15    17   ar
    31    11     6   ar
    32    17    12   ar
    33     5     1   ar
    34    26    22   ar
    35    29    23    1
    36    20    21    1
@<TRIPOS>MOLECULE
*****
 32 36 0 0 0
SMALL
GASTEIGER

@<TRIPOS>ATOM
      1 C          64.0270   88.8764   14.7136 C.ar    1  UNL1        0.1074
      2 C          63.4621   89.6719   15.8529 C.ar    1  UNL1        0.0588
      3 S          63.9343   91.0882   15.7084 S.2     1  UNL1       -0.0508
      4 C          64.7911   91.1681   14.4798 C.ar    1  UNL1        0.1646
      5 N          64.8484   89.8012   13.8650 N.ar    1  UNL1       -0.2224
      6 C          63.1097   85.4793   12.8785 C.ar    1  UNL1        0.2416
      7 N          63.3278   86.9425   13.1258 N.ar    1  UNL1       -0.2089
      8 C          63.8088   87.4131   14.4664 C.ar    1  UNL1        0.1026
      9 C          64.0716   86.4203   15.5598 C.ar    1  UNL1        0.0224
     10 C          63.8535   84.9570   15.3125 C.ar    1  UNL1        0.0239
     11 C          63.3725   84.4864   13.9719 C.ar    1  UNL1        0.1189
     12 N          63.1543   83.0232   13.7246 N.ar    1  UNL1       -0.2826
     13 C          64.0792   82.1075   12.9789 C.ar    1  UNL1        0.1826
     14 N          63.4695   80.7371   12.9731 N.ar    1  UNL1       -0.2280
     15 C          62.1677   80.8058   13.7152 C.ar    1  UNL1        0.0786
     16 C          61.2260   79.6623   13.9514 C.3     1  UNL1        0.0538
     17 C          61.9730   82.2186   14.1797 C.ar    1  UNL1        0.0963
     18 C          61.6406   85.8307   10.7648 C.3     1  UNL1        0.2543
     19 O          62.6287   85.0087   11.5379 O.3     1  UNL1       -0.4551
     20 N          65.4712   92.3989   13.9576 N.pl3   1  UNL1       -0.2786
     21 H          65.0817   93.2867   14.1288 H       1  UNL1        0.1555
     22 C          66.7448   92.2770   13.1746 C.ar    1  UNL1        0.1276
     23 C          66.9092   92.5542   11.7097 C.ar    1  UNL1        0.0244
     24 C          68.3436   92.3050   11.3487 C.ar    1  UNL1        0.0773
     25 N          69.0658   91.8736   12.5906 N.ar    1  UNL1       -0.1728
     26 N          68.0778   91.8563   13.7191 N.ar    1  UNL1       -0.2354
     27 C          68.5079   92.5823    9.8838 C.3     1  UNL1        0.0477
     28 C          67.1750   93.0029    9.3393 C.3     1  UNL1        0.0112
     29 C          66.1869   92.9856   10.4678 C.3     1  UNL1        0.0308
     30 C          68.3711   91.4838   15.1421 C.3     1  UNL1        0.1668
     31 C          68.2781   92.5197   16.2231 C.3     1  UNL1        0.2195
     32 F          68.0776   93.9622   15.8643 F       1  UNL1       -0.2321
@<TRIPOS>BOND
     1    18    19    1
     2    19     6    1
     3     6     7   ar
     4     7     8   ar
     5     8     1    1
     6     1     2   ar
     7     2     3   ar
     8     3     4   ar
     9     4    20    1
    10    20    22    1
    11    22    23   ar
    12    23    24   ar
    13    24    25   ar
    14    25    26   ar
    15    26    30    1
    16    30    31    1
    17    31    32    1
    18    24    27    1
    19    27    28    1
    20    28    29    1
    21     4     5   ar
    22     8     9   ar
    23     9    10   ar
    24    10    11   ar
    25    11    12    1
    26    12    13   ar
    27    13    14   ar
    28    14    15   ar
    29    15    16    1
    30    15    17   ar
    31    11     6   ar
    32    17    12   ar
    33     5     1   ar
    34    26    22   ar
    35    29    23    1
    36    20    21    1
@<TRIPOS>MOLECULE
*****
 32 36 0 0 0
SMALL
GASTEIGER

@<TRIPOS>ATOM
      1 C          62.5826   89.0875   11.9663 C.ar    1  UNL1        0.1074
      2 C          61.2568   89.5845   11.4712 C.ar    1  UNL1        0.0588
      3 S          60.5665   88.4489   10.7756 S.2     1  UNL1       -0.0508
      4 C          61.4657   87.2500   10.8409 C.ar    1  UNL1        0.1646
      5 N          62.7117   87.6448   11.5767 N.ar    1  UNL1       -0.2224
      6 C          65.1015   92.0036   12.9157 C.ar    1  UNL1        0.2416
      7 N          64.0835   91.1991   12.1632 N.ar    1  UNL1       -0.2089
      8 C          63.6006   89.8921   12.7188 C.ar    1  UNL1        0.1026
      9 C          64.1359   89.3896   14.0270 C.ar    1  UNL1        0.0224
     10 C          65.1539   90.1942   14.7795 C.ar    1  UNL1        0.0239
     11 C          65.6367   91.5012   14.2239 C.ar    1  UNL1        0.1189
     12 N          66.6548   92.3057   14.9764 N.ar    1  UNL1       -0.2826
     13 C          66.4426   92.9809   16.2989 C.ar    1  UNL1        0.1826
     14 N          67.7204   93.6688   16.6784 N.ar    1  UNL1       -0.2280
     15 C          68.7223   93.4188   15.5904 C.ar    1  UNL1        0.0786
     16 C          70.1348   93.9227   15.5597 C.3     1  UNL1        0.0538
     17 C          68.0637   92.5763   14.5386 C.ar    1  UNL1        0.0963
     18 C          66.0667   93.3903   10.9421 C.3     1  UNL1        0.2543
     19 O          65.5844   93.3106   12.3601 O.3     1  UNL1       -0.4551
     20 N          61.1706   85.8944   10.2705 N.pl3   1  UNL1       -0.2786
     21 H          60.2757   85.6955    9.9116 H       1  UNL1        0.1555
     22 C          62.2391   84.8419   10.2468 C.ar    1  UNL1        0.1276
     23 C          62.6925   84.0194   11.4164 C.ar    1  UNL1        0.0244
     24 C          63.7754   83.0963   10.9419 C.ar    1  UNL1        0.0773
     25 N          63.9913   83.3483    9.4790 N.ar    1  UNL1       -0.1728
     26 N          63.0418   84.4272    9.0494 N.ar    1  UNL1       -0.2354
     27 C          64.2289   82.2737   12.1114 C.3     1  UNL1        0.0477
     28 C          63.4262   82.6885   13.3087 C.3     1  UNL1        0.0112
     29 C          62.4766   83.7674   12.8792 C.3     1  UNL1        0.0308
     30 C          62.9169   84.9920    7.6655 C.3     1  UNL1        0.1668
     31 C          61.6303   84.8449    6.9086 C.3     1  UNL1        0.2195
     32 F          61.6103   84.1159    5.5979 F       1  UNL1       -0.2321
@<TRIPOS>BOND
     1    18    19    1
     2    19     6    1
     3     6     7   ar
     4     7     8   ar
     5     8     1    1
     6     1     2   ar
     7     2     3   ar
     8     3     4   ar
     9     4    20    1
    10    20    22    1
    11    22    23   ar
    12    23    24   ar
    13    24    25   ar
    14    25    26   ar
    15    26    30    1
    16    30    31    1
    17    31    32    1
    18    24    27    1
    19    27    28    1
    20    28    29    1
    21     4     5   ar
    22     8     9   ar
    23     9    10   ar
    24    10    11   ar
    25    11    12    1
    26    12    13   ar
    27    13    14   ar
    28    14    15   ar
    29    15    16    1
    30    15    17   ar
    31    11     6   ar
    32    17    12   ar
    33     5     1   ar
    34    26    22   ar
    35    29    23    1
    36    20    21    1
@<TRIPOS>MOLECULE
*****
 32 36 0 0 0
SMALL
GASTEIGER

@<TRIPOS>ATOM
      1 C          63.8160   88.1936   15.1395 C.ar    1  UNL1        0.1074
      2 C          62.9798   88.7909   16.2322 C.ar    1  UNL1        0.0588
      3 S          63.4723   90.1853   16.4831 S.2     1  UNL1       -0.0508
      4 C          64.6128   90.4498   15.5455 C.ar    1  UNL1        0.1646
      5 N          64.8252   89.2189   14.7151 N.ar    1  UNL1       -0.2224
      6 C          63.0040   85.2481   12.6068 C.ar    1  UNL1        0.2416
      7 N          63.1512   86.6284   13.1753 N.ar    1  UNL1       -0.2089
      8 C          63.6687   86.8134   14.5710 C.ar    1  UNL1        0.1026
      9 C          64.0389   85.6180   15.3982 C.ar    1  UNL1        0.0224
     10 C          63.8917   84.2378   14.8298 C.ar    1  UNL1        0.0239
     11 C          63.3742   84.0528   13.4340 C.ar    1  UNL1        0.1189
     12 N          63.2269   82.6726   12.8655 N.ar    1  UNL1       -0.2826
     13 C          62.9986   81.4153   13.6510 C.ar    1  UNL1        0.1826
     14 N          62.9127   80.2729   12.6827 N.ar    1  UNL1       -0.2280
     15 C          63.0880   80.8243   11.2987 C.ar    1  UNL1        0.0786
     16 C          63.0719   80.0316   10.0253 C.3     1  UNL1        0.0538
     17 C          63.2822   82.3072   11.4118 C.ar    1  UNL1        0.0963
     18 C          61.4609   86.0088   10.6600 C.3     1  UNL1        0.2543
     19 O          62.4865   85.0631   11.2111 O.3     1  UNL1       -0.4551
     20 N          65.4024   91.7220   15.4543 N.pl3   1  UNL1       -0.2786
     21 H          65.6872   92.1846   16.2753 H       1  UNL1        0.1555
     22 C          65.7580   92.2893   14.1120 C.ar    1  UNL1        0.1276
     23 C          65.0495   92.0082   12.8201 C.ar    1  UNL1        0.0244
     24 C          65.7382   92.7825   11.7356 C.ar    1  UNL1        0.0773
     25 N          66.8724   93.5423   12.3572 N.ar    1  UNL1       -0.1728
     26 N          66.8847   93.2375   13.8259 N.ar    1  UNL1       -0.2354
     27 C          65.0297   92.5014   10.4438 C.3     1  UNL1        0.0477
     28 C          63.9031   91.5533   10.7298 C.3     1  UNL1        0.0112
     29 C          63.9153   91.2485   12.1985 C.3     1  UNL1        0.0308
     30 C          67.8535   93.7847   14.8319 C.3     1  UNL1        0.1668
     31 C          68.8019   92.8622   15.5387 C.3     1  UNL1        0.2195
     32 F          68.3284   92.0527   16.7092 F       1  UNL1       -0.2321
@<TRIPOS>BOND
     1    18    19    1
     2    19     6    1
     3     6     7   ar
     4     7     8   ar
     5     8     1    1
     6     1     2   ar
     7     2     3   ar
     8     3     4   ar
     9     4    20    1
    10    20    22    1
    11    22    23   ar
    12    23    24   ar
    13    24    25   ar
    14    25    26   ar
    15    26    30    1
    16    30    31    1
    17    31    32    1
    18    24    27    1
    19    27    28    1
    20    28    29    1
    21     4     5   ar
    22     8     9   ar
    23     9    10   ar
    24    10    11   ar
    25    11    12    1
    26    12    13   ar
    27    13    14   ar
    28    14    15   ar
    29    15    16    1
    30    15    17   ar
    31    11     6   ar
    32    17    12   ar
    33     5     1   ar
    34    26    22   ar
    35    29    23    1
    36    20    21    1
@<TRIPOS>MOLECULE
*****
 32 36 0 0 0
SMALL
GASTEIGER

@<TRIPOS>ATOM
      1 C          64.2422   89.2478   14.4837 C.ar    1  UNL1        0.1074
      2 C          63.6052   89.2753   15.8414 C.ar    1  UNL1        0.0588
      3 S          63.2896   87.8624   16.2340 S.2     1  UNL1       -0.0508
      4 C          63.7316   86.9618   15.1190 C.ar    1  UNL1        0.1646
      5 N          64.3203   87.8179   14.0373 N.ar    1  UNL1       -0.2224
      6 C          66.4131   92.3822   13.3824 C.ar    1  UNL1        0.2416
      7 N          65.9376   91.1892   14.1575 N.ar    1  UNL1       -0.2089
      8 C          64.7177   90.4407   13.7086 C.ar    1  UNL1        0.1026
      9 C          63.9731   90.8853   12.4846 C.ar    1  UNL1        0.0224
     10 C          64.4486   92.0782   11.7094 C.ar    1  UNL1        0.0239
     11 C          65.6686   92.8267   12.1583 C.ar    1  UNL1        0.1189
     12 N          66.1440   94.0196   11.3832 N.ar    1  UNL1       -0.2826
     13 C          66.1999   95.4320   11.8851 C.ar    1  UNL1        0.1826
     14 N          66.7375   96.2949   10.7822 N.ar    1  UNL1       -0.2280
     15 C          67.0139   95.4157    9.5987 C.ar    1  UNL1        0.0786
     16 C          67.5610   95.8641    8.2759 C.3     1  UNL1        0.0538
     17 C          66.6471   94.0096    9.9701 C.ar    1  UNL1        0.0963
     18 C          68.1947   92.8961   15.2021 C.3     1  UNL1        0.2543
     19 O          67.6331   93.1306   13.8312 O.3     1  UNL1       -0.4551
     20 N          63.6067   85.4672   15.0906 N.pl3   1  UNL1       -0.2786
     21 H          63.7417   84.9462   15.9150 H       1  UNL1        0.1555
     22 C          63.2761   84.7665   13.8062 C.ar    1  UNL1        0.1276
     23 C          63.2367   83.2817   13.5967 C.ar    1  UNL1        0.0244
     24 C          62.8630   83.0250   12.1668 C.ar    1  UNL1        0.0773
     25 N          62.6715   84.3512   11.4926 N.ar    1  UNL1       -0.1728
     26 N          62.9268   85.4275   12.5057 N.ar    1  UNL1       -0.2354
     27 C          62.8236   81.5403   11.9573 C.3     1  UNL1        0.0477
     28 C          63.1729   80.8793   13.2577 C.3     1  UNL1        0.0112
     29 C          63.4282   81.9555   14.2709 C.3     1  UNL1        0.0308
     30 C          62.8468   86.9053   12.2614 C.3     1  UNL1        0.1668
     31 C          62.0877   87.4300   11.0788 C.3     1  UNL1        0.2195
     32 F          62.6142   88.6063   10.3114 F       1  UNL1       -0.2321
@<TRIPOS>BOND
     1    18    19    1
     2    19     6    1
     3     6     7   ar
     4     7     8   ar
     5     8     1    1
     6     1     2   ar
     7     2     3   ar
     8     3     4   ar
     9     4    20    1
    10    20    22    1
    11    22    23   ar
    12    23    24   ar
    13    24    25   ar
    14    25    26   ar
    15    26    30    1
    16    30    31    1
    17    31    32    1
    18    24    27    1
    19    27    28    1
    20    28    29    1
    21     4     5   ar
    22     8     9   ar
    23     9    10   ar
    24    10    11   ar
    25    11    12    1
    26    12    13   ar
    27    13    14   ar
    28    14    15   ar
    29    15    16    1
    30    15    17   ar
    31    11     6   ar
    32    17    12   ar
    33     5     1   ar
    34    26    22   ar
    35    29    23    1
    36    20    21    1
@<TRIPOS>MOLECULE
*****
 32 36 0 0 0
SMALL
GASTEIGER

@<TRIPOS>ATOM
      1 C          63.9500   87.6636   14.5061 C.ar    1  UNL1        0.1074
      2 C          63.8259   87.2371   15.9388 C.ar    1  UNL1        0.0588
      3 S          63.3685   85.8087   15.9592 S.2     1  UNL1       -0.0508
      4 C          63.2099   85.3525   14.5391 C.ar    1  UNL1        0.1646
      5 N          63.5693   86.4988   13.6411 N.ar    1  UNL1       -0.2224
      6 C          64.2586   90.9188   12.2570 C.ar    1  UNL1        0.2416
      7 N          63.8291   89.5652   12.7399 N.ar    1  UNL1       -0.2089
      8 C          64.3794   89.0173   14.0233 C.ar    1  UNL1        0.1026
      9 C          65.3592   89.8232   14.8238 C.ar    1  UNL1        0.0224
     10 C          65.7886   91.1768   14.3410 C.ar    1  UNL1        0.0239
     11 C          65.2383   91.7247   13.0576 C.ar    1  UNL1        0.1189
     12 N          65.6677   93.0784   12.5747 N.ar    1  UNL1       -0.2826
     13 C          66.2863   94.1579   13.4125 C.ar    1  UNL1        0.1826
     14 N          66.5549   95.3369   12.5249 N.ar    1  UNL1       -0.2280
     15 C          66.1023   94.9859   11.1385 C.ar    1  UNL1        0.0786
     16 C          66.1836   95.8748    9.9329 C.3     1  UNL1        0.0538
     17 C          65.5540   93.5901   11.1693 C.ar    1  UNL1        0.0963
     18 C          62.4924   90.8451   10.3532 C.3     1  UNL1        0.2543
     19 O          63.7083   91.4667   10.9737 O.3     1  UNL1       -0.4551
     20 N          62.7692   83.9891   14.0950 N.pl3   1  UNL1       -0.2786
     21 H          62.2790   83.4036   14.7163 H       1  UNL1        0.1555
     22 C          63.0756   83.5180   12.7042 C.ar    1  UNL1        0.1276
     23 C          62.9216   84.3217   11.4471 C.ar    1  UNL1        0.0244
     24 C          63.3405   83.4608   10.2923 C.ar    1  UNL1        0.0773
     25 N          63.7534   82.1251   10.8357 N.ar    1  UNL1       -0.1728
     26 N          63.5897   82.1603   12.3264 N.ar    1  UNL1       -0.2354
     27 C          63.1866   84.2645    9.0352 C.3     1  UNL1        0.0477
     28 C          62.6725   85.6221    9.4130 C.3     1  UNL1        0.0112
     29 C          62.5088   85.6574   10.9037 C.3     1  UNL1        0.0308
     30 C          63.8876   81.0356   13.2730 C.3     1  UNL1        0.1668
     31 C          62.7740   80.1702   13.7838 C.3     1  UNL1        0.2195
     32 F          61.5912   80.7935   14.4637 F       1  UNL1       -0.2321
@<TRIPOS>BOND
     1    18    19    1
     2    19     6    1
     3     6     7   ar
     4     7     8   ar
     5     8     1    1
     6     1     2   ar
     7     2     3   ar
     8     3     4   ar
     9     4    20    1
    10    20    22    1
    11    22    23   ar
    12    23    24   ar
    13    24    25   ar
    14    25    26   ar
    15    26    30    1
    16    30    31    1
    17    31    32    1
    18    24    27    1
    19    27    28    1
    20    28    29    1
    21     4     5   ar
    22     8     9   ar
    23     9    10   ar
    24    10    11   ar
    25    11    12    1
    26    12    13   ar
    27    13    14   ar
    28    14    15   ar
    29    15    16    1
    30    15    17   ar
    31    11     6   ar
    32    17    12   ar
    33     5     1   ar
    34    26    22   ar
    35    29    23    1
    36    20    21    1
@<TRIPOS>MOLECULE
*****
 32 36 0 0 0
SMALL
GASTEIGER

@<TRIPOS>ATOM
      1 C          64.1986   89.0831   14.6096 C.ar    1  UNL1        0.1074
      2 C          63.5717   89.1134   15.9719 C.ar    1  UNL1        0.0588
      3 S          63.2456   87.7027   16.3636 S.2     1  UNL1       -0.0508
      4 C          63.6709   86.8005   15.2433 C.ar    1  UNL1        0.1646
      5 N          64.2599   87.6536   14.1593 N.ar    1  UNL1       -0.2224
      6 C          64.5359   91.7998   11.7363 C.ar    1  UNL1        0.2416
      7 N          64.0548   90.6096   12.5122 N.ar    1  UNL1       -0.2089
      8 C          64.6797   90.2733   13.8337 C.ar    1  UNL1        0.1026
      9 C          65.7857   91.1272   14.3794 C.ar    1  UNL1        0.0224
     10 C          66.2668   92.3174   13.6035 C.ar    1  UNL1        0.0239
     11 C          65.6419   92.6537   12.2820 C.ar    1  UNL1        0.1189
     12 N          66.1230   93.8439   11.5061 N.ar    1  UNL1       -0.2826
     13 C          66.1626   95.2601   11.9987 C.ar    1  UNL1        0.1826
     14 N          66.7130   96.1183   10.8985 N.ar    1  UNL1       -0.2280
     15 C          67.0137   95.2324    9.7260 C.ar    1  UNL1        0.0786
     16 C          67.5797   95.6746    8.4090 C.3     1  UNL1        0.0538
     17 C          66.6491   93.8268   10.1015 C.ar    1  UNL1        0.0963
     18 C          62.8472   91.2483    9.8406 C.3     1  UNL1        0.2543
     19 O          63.9111   92.1361   10.4148 O.3     1  UNL1       -0.4551
     20 N          63.5317   85.3072   15.2125 N.pl3   1  UNL1       -0.2786
     21 H          63.6588   84.7838   16.0366 H       1  UNL1        0.1555
     22 C          63.1988   84.6114   13.9260 C.ar    1  UNL1        0.1276
     23 C          63.1323   83.1274   13.7177 C.ar    1  UNL1        0.0244
     24 C          62.7664   82.8763   12.2849 C.ar    1  UNL1        0.0773
     25 N          62.6066   84.2051   11.6076 N.ar    1  UNL1       -0.1728
     26 N          62.8739   85.2775   12.6218 N.ar    1  UNL1       -0.2354
     27 C          62.6999   81.3923   12.0767 C.3     1  UNL1        0.0477
     28 C          63.0248   80.7263   13.3808 C.3     1  UNL1        0.0112
     29 C          63.2921   81.7986   14.3951 C.3     1  UNL1        0.0308
     30 C          62.8248   86.7562   12.3752 C.3     1  UNL1        0.1668
     31 C          62.0959   87.2934   11.1792 C.3     1  UNL1        0.2195
     32 F          62.5942   86.9884    9.7978 F       1  UNL1       -0.2321
@<TRIPOS>BOND
     1    18    19    1
     2    19     6    1
     3     6     7   ar
     4     7     8   ar
     5     8     1    1
     6     1     2   ar
     7     2     3   ar
     8     3     4   ar
     9     4    20    1
    10    20    22    1
    11    22    23   ar
    12    23    24   ar
    13    24    25   ar
    14    25    26   ar
    15    26    30    1
    16    30    31    1
    17    31    32    1
    18    24    27    1
    19    27    28    1
    20    28    29    1
    21     4     5   ar
    22     8     9   ar
    23     9    10   ar
    24    10    11   ar
    25    11    12    1
    26    12    13   ar
    27    13    14   ar
    28    14    15   ar
    29    15    16    1
    30    15    17   ar
    31    11     6   ar
    32    17    12   ar
    33     5     1   ar
    34    26    22   ar
    35    29    23    1
    36    20    21    1
