@<TRIPOS>MOLECULE
*****
 26 29 0 0 0
SMALL
GASTEIGER

@<TRIPOS>ATOM
      1 C          62.8839   90.0220   12.1946 C.3     1  UNL1        0.2068
      2 C          63.2888   85.3036   12.6507 C.3     1  UNL1        0.0222
      3 C          62.5042   86.0659   11.6244 C.3     1  UNL1        0.0842
      4 C          61.6800   85.4689   10.5224 C.3     1  UNL1        0.0478
      5 C          61.0725   86.5931    9.7368 C.ar    1  UNL1       -0.0068
      6 C          60.1686   86.6074    8.5398 C.ar    1  UNL1       -0.0030
      7 C          59.7136   87.9134    7.9592 C.ar    1  UNL1       -0.0002
      8 C          60.1624   89.2052    8.5756 C.ar    1  UNL1        0.0013
      9 C          61.0662   89.1909    9.7726 C.ar    1  UNL1        0.0146
     10 C          61.5212   87.8849   10.3532 C.ar    1  UNL1        0.0498
     11 N          62.4061   87.5590   11.5198 N.am    1  UNL1       -0.2598
     12 C          63.0753   88.5520   12.4232 C.2     1  UNL1        0.2418
     13 O          63.9361   88.0749   13.5553 O.2     1  UNL1       -0.2739
     14 C          63.9506   90.9910   12.6107 C.2     1  UNL1        0.3580
     15 N          64.6748   91.7994   11.5754 N.2     1  UNL1       -0.0039
     16 C          65.7415   92.7684   11.9915 C.2     1  UNL1        0.3159
     17 C          66.0841   92.9289   13.4430 C.3     1  UNL1        0.2333
     18 C          65.3599   92.1205   14.4784 C.2     1  UNL1        0.3644
     19 O          65.7023   92.2810   15.9299 O.2     1  UNL1       -0.2422
     20 N          64.2931   91.1515   14.0622 N.am    1  UNL1        0.0289
     21 N          66.4658   93.5768   10.9561 N.pl3   1  UNL1       -0.1888
     22 C          66.2654   95.0618   10.8888 C.3     1  UNL1        0.2343
     23 C          66.9896   95.8702    9.8535 C.3     1  UNL1        0.1929
     24 O          67.9142   95.1936    8.8854 O.3     1  UNL1       -0.3449
     25 C          68.1146   93.7086    8.9527 C.3     1  UNL1        0.1929
     26 C          67.3904   92.9002    9.9880 C.3     1  UNL1        0.2343
@<TRIPOS>BOND
     1     3     2    1
     2     3     4    1
     3     4     5    1
     4     5     6   ar
     5     6     7   ar
     6     7     8   ar
     7     8     9   ar
     8     9    10   ar
     9    10    11    1
    10    11    12   am
    11    12    13    2
    12    12     1    1
    13     1    14    1
    14    14    15    1
    15    15    16    2
    16    16    21    1
    17    21    22    1
    18    22    23    1
    19    23    24    1
    20    24    25    1
    21    25    26    1
    22    16    17    1
    23    17    18    1
    24    18    19    2
    25    18    20    1
    26    11     3    1
    27    20    14    2
    28    10     5   ar
    29    26    21    1
@<TRIPOS>MOLECULE
*****
 26 29 0 0 0
SMALL
GASTEIGER

@<TRIPOS>ATOM
      1 C          64.4160   88.7745   14.5283 C.3     1  UNL1        0.2068
      2 C          62.9726   90.6185   10.3868 C.3     1  UNL1        0.0222
      3 C          63.9080   91.2262   11.3897 C.3     1  UNL1        0.0842
      4 C          64.5803   92.5620   11.2720 C.3     1  UNL1        0.0478
      5 C          65.4232   92.7662   12.4958 C.ar    1  UNL1       -0.0068
      6 C          66.3089   93.8972   12.9272 C.ar    1  UNL1       -0.0030
      7 C          67.0434   93.8187   14.2327 C.ar    1  UNL1       -0.0002
      8 C          66.8921   92.6092   15.1068 C.ar    1  UNL1        0.0013
      9 C          66.0064   91.4781   14.6754 C.ar    1  UNL1        0.0146
     10 C          65.2719   91.5566   13.3699 C.ar    1  UNL1        0.0498
     11 N          64.3355   90.6049   12.6863 N.am    1  UNL1       -0.2598
     12 C          63.9026   89.2668   13.2077 C.2     1  UNL1        0.2418
     13 O          62.9560   88.4208   12.4085 O.2     1  UNL1       -0.2739
     14 C          63.8649   87.5131   15.1243 C.2     1  UNL1        0.3580
     15 N          63.8657   86.2434   14.3257 N.2     1  UNL1       -0.0039
     16 C          63.3146   84.9821   14.9217 C.2     1  UNL1        0.3159
     17 C          62.7626   84.9904   16.3164 C.3     1  UNL1        0.2333
     18 C          62.7618   86.2601   17.1151 C.2     1  UNL1        0.3644
     19 O          62.2098   86.2685   18.5098 O.2     1  UNL1       -0.2422
     20 N          63.3129   87.5215   16.5190 N.am    1  UNL1        0.0289
     21 N          63.3154   83.7124   14.1230 N.pl3   1  UNL1       -0.1888
     22 C          64.2532   83.5568   12.9627 C.3     1  UNL1        0.2343
     23 C          64.2540   82.2871   12.1640 C.3     1  UNL1        0.1929
     24 O          63.3171   81.1729   12.5257 O.3     1  UNL1       -0.3449
     25 C          62.3794   81.3285   13.6860 C.3     1  UNL1        0.1929
     26 C          62.3785   82.5982   14.4847 C.3     1  UNL1        0.2343
@<TRIPOS>BOND
     1     3     2    1
     2     3     4    1
     3     4     5    1
     4     5     6   ar
     5     6     7   ar
     6     7     8   ar
     7     8     9   ar
     8     9    10   ar
     9    10    11    1
    10    11    12   am
    11    12    13    2
    12    12     1    1
    13     1    14    1
    14    14    15    1
    15    15    16    2
    16    16    21    1
    17    21    22    1
    18    22    23    1
    19    23    24    1
    20    24    25    1
    21    25    26    1
    22    16    17    1
    23    17    18    1
    24    18    19    2
    25    18    20    1
    26    11     3    1
    27    20    14    2
    28    10     5   ar
    29    26    21    1
@<TRIPOS>MOLECULE
*****
 26 29 0 0 0
SMALL
GASTEIGER

@<TRIPOS>ATOM
      1 C          63.4662   89.8124   13.3436 C.3     1  UNL1        0.2068
      2 C          61.0062   89.2165    9.3151 C.3     1  UNL1        0.0222
      3 C          61.5996   88.1583   10.1972 C.3     1  UNL1        0.0842
      4 C          61.5270   86.6775    9.9690 C.3     1  UNL1        0.0478
      5 C          62.2524   85.9991   11.0931 C.ar    1  UNL1       -0.0068
      6 C          62.5059   84.5520   11.3955 C.ar    1  UNL1       -0.0030
      7 C          63.2803   84.1664   12.6208 C.ar    1  UNL1       -0.0002
      8 C          63.8012   85.2278   13.5437 C.ar    1  UNL1        0.0013
      9 C          63.5478   86.6750   13.2414 C.ar    1  UNL1        0.0146
     10 C          62.7734   87.0606   12.0160 C.ar    1  UNL1        0.0498
     11 N          62.3699   88.3950   11.4623 N.am    1  UNL1       -0.2598
     12 C          62.6820   89.7316   12.0675 C.2     1  UNL1        0.2418
     13 O          62.2098   90.9874   11.3966 O.2     1  UNL1       -0.2739
     14 C          64.4394   90.9339   13.5561 C.2     1  UNL1        0.3580
     15 N          64.9862   91.6856   12.3789 N.2     1  UNL1       -0.0039
     16 C          65.9595   92.8071   12.5914 C.2     1  UNL1        0.3159
     17 C          66.3859   93.1768   13.9812 C.3     1  UNL1        0.2333
     18 C          65.8391   92.4251   15.1584 C.2     1  UNL1        0.3644
     19 O          66.2654   92.7947   16.5482 O.2     1  UNL1       -0.2422
     20 N          64.8659   91.3036   14.9459 N.am    1  UNL1        0.0289
     21 N          66.5063   93.5588   11.4142 N.pl3   1  UNL1       -0.1888
     22 C          66.2979   95.0405   11.3079 C.3     1  UNL1        0.2343
     23 C          66.8447   95.7922   10.1306 C.3     1  UNL1        0.1929
     24 O          67.5999   95.0623    9.0597 O.3     1  UNL1       -0.3449
     25 C          67.8083   93.5807    9.1660 C.3     1  UNL1        0.1929
     26 C          67.2615   92.8290   10.3432 C.3     1  UNL1        0.2343
@<TRIPOS>BOND
     1     3     2    1
     2     3     4    1
     3     4     5    1
     4     5     6   ar
     5     6     7   ar
     6     7     8   ar
     7     8     9   ar
     8     9    10   ar
     9    10    11    1
    10    11    12   am
    11    12    13    2
    12    12     1    1
    13     1    14    1
    14    14    15    1
    15    15    16    2
    16    16    21    1
    17    21    22    1
    18    22    23    1
    19    23    24    1
    20    24    25    1
    21    25    26    1
    22    16    17    1
    23    17    18    1
    24    18    19    2
    25    18    20    1
    26    11     3    1
    27    20    14    2
    28    10     5   ar
    29    26    21    1
@<TRIPOS>MOLECULE
*****
 26 29 0 0 0
SMALL
GASTEIGER

@<TRIPOS>ATOM
      1 C          63.3950   90.7471   13.0290 C.3     1  UNL1        0.2068
      2 C          61.6653   88.3486    9.3020 C.3     1  UNL1        0.0222
      3 C          62.2601   87.7907   10.5609 C.3     1  UNL1        0.0842
      4 C          62.4253   86.3363   10.8888 C.3     1  UNL1        0.0478
      5 C          63.0615   86.2359   12.2435 C.ar    1  UNL1       -0.0068
      6 C          63.4626   85.0566   13.0791 C.ar    1  UNL1       -0.0030
      7 C          64.0918   85.2695   14.4240 C.ar    1  UNL1       -0.0002
      8 C          64.3199   86.6619   14.9332 C.ar    1  UNL1        0.0013
      9 C          63.9188   87.8412   14.0977 C.ar    1  UNL1        0.0146
     10 C          63.2896   87.6282   12.7528 C.ar    1  UNL1        0.0498
     11 N          62.7943   88.5891   11.7129 N.am    1  UNL1       -0.2598
     12 C          62.8275   90.0857   11.8082 C.2     1  UNL1        0.2418
     13 O          62.2930   90.9210   10.6827 O.2     1  UNL1       -0.2739
     14 C          64.7494   91.3893   12.9730 C.2     1  UNL1        0.3580
     15 N          65.1053   92.2907   11.8281 N.2     1  UNL1       -0.0039
     16 C          66.4597   92.9329   11.7721 C.2     1  UNL1        0.3159
     17 C          67.4582   92.6738   12.8610 C.3     1  UNL1        0.2333
     18 C          67.1023   91.7725   14.0060 C.2     1  UNL1        0.3644
     19 O          68.1007   91.5134   15.0950 O.2     1  UNL1       -0.2422
     20 N          65.7479   91.1303   14.0620 N.am    1  UNL1        0.0289
     21 N          66.8156   93.8343   10.6271 N.pl3   1  UNL1       -0.1888
     22 C          66.4543   95.2892   10.6776 C.3     1  UNL1        0.2343
     23 C          66.8102   96.1905    9.5326 C.3     1  UNL1        0.1929
     24 O          67.5274   95.6369    8.3372 O.3     1  UNL1       -0.3449
     25 C          67.8887   94.1820    8.2867 C.3     1  UNL1        0.1929
     26 C          67.5328   93.2807    9.4317 C.3     1  UNL1        0.2343
@<TRIPOS>BOND
     1     3     2    1
     2     3     4    1
     3     4     5    1
     4     5     6   ar
     5     6     7   ar
     6     7     8   ar
     7     8     9   ar
     8     9    10   ar
     9    10    11    1
    10    11    12   am
    11    12    13    2
    12    12     1    1
    13     1    14    1
    14    14    15    1
    15    15    16    2
    16    16    21    1
    17    21    22    1
    18    22    23    1
    19    23    24    1
    20    24    25    1
    21    25    26    1
    22    16    17    1
    23    17    18    1
    24    18    19    2
    25    18    20    1
    26    11     3    1
    27    20    14    2
    28    10     5   ar
    29    26    21    1
@<TRIPOS>MOLECULE
*****
 26 29 0 0 0
SMALL
GASTEIGER

@<TRIPOS>ATOM
      1 C          62.5302   90.2011   12.0099 C.3     1  UNL1        0.2068
      2 C          65.9941   92.9373   10.2350 C.3     1  UNL1        0.0222
      3 C          65.7059   92.6348   11.6756 C.3     1  UNL1        0.0842
      4 C          66.4746   93.1510   12.8558 C.3     1  UNL1        0.0478
      5 C          65.8423   92.5983   14.0986 C.ar    1  UNL1       -0.0068
      6 C          66.1725   92.7652   15.5522 C.ar    1  UNL1       -0.0030
      7 C          65.3432   92.0744   16.5938 C.ar    1  UNL1       -0.0002
      8 C          64.1837   91.2167   16.1818 C.ar    1  UNL1        0.0013
      9 C          63.8534   91.0497   14.7282 C.ar    1  UNL1        0.0146
     10 C          64.6828   91.7405   13.6866 C.ar    1  UNL1        0.0498
     11 N          64.5985   91.7631   12.1891 N.am    1  UNL1       -0.2598
     12 C          63.5847   91.0408   11.3521 C.2     1  UNL1        0.2418
     13 O          63.6255   91.1584    9.8572 O.2     1  UNL1       -0.2739
     14 C          62.2185   88.8345   11.4757 C.2     1  UNL1        0.3580
     15 N          62.7702   87.6184   12.1588 N.2     1  UNL1       -0.0039
     16 C          62.4584   86.2518   11.6247 C.2     1  UNL1        0.3159
     17 C          61.5949   86.1014   10.4075 C.3     1  UNL1        0.2333
     18 C          61.0432   87.3175    9.7244 C.2     1  UNL1        0.3644
     19 O          60.1796   87.1671    8.5072 O.2     1  UNL1       -0.2422
     20 N          61.3549   88.6840   10.2585 N.am    1  UNL1        0.0289
     21 N          63.0102   85.0357   12.3078 N.pl3   1  UNL1       -0.1888
     22 C          62.8299   83.6812   11.6891 C.3     1  UNL1        0.2343
     23 C          63.3816   82.4651   12.3721 C.3     1  UNL1        0.1929
     24 O          64.1137   82.6035   13.6740 O.3     1  UNL1       -0.3449
     25 C          64.2940   83.9579   14.2927 C.3     1  UNL1        0.1929
     26 C          63.7423   85.1740   13.6097 C.3     1  UNL1        0.2343
@<TRIPOS>BOND
     1     3     2    1
     2     3     4    1
     3     4     5    1
     4     5     6   ar
     5     6     7   ar
     6     7     8   ar
     7     8     9   ar
     8     9    10   ar
     9    10    11    1
    10    11    12   am
    11    12    13    2
    12    12     1    1
    13     1    14    1
    14    14    15    1
    15    15    16    2
    16    16    21    1
    17    21    22    1
    18    22    23    1
    19    23    24    1
    20    24    25    1
    21    25    26    1
    22    16    17    1
    23    17    18    1
    24    18    19    2
    25    18    20    1
    26    11     3    1
    27    20    14    2
    28    10     5   ar
    29    26    21    1
@<TRIPOS>MOLECULE
*****
 26 29 0 0 0
SMALL
GASTEIGER

@<TRIPOS>ATOM
      1 C          62.6028   90.1648   11.6304 C.3     1  UNL1        0.2068
      2 C          63.0605   85.4851   12.3556 C.3     1  UNL1        0.0222
      3 C          62.2543   86.1789   11.2979 C.3     1  UNL1        0.0842
      4 C          61.4209   85.5110   10.2447 C.3     1  UNL1        0.0478
      5 C          60.7915   86.5817    9.4035 C.ar    1  UNL1       -0.0068
      6 C          59.8711   86.5177    8.2209 C.ar    1  UNL1       -0.0030
      7 C          59.3952   87.7833    7.5716 C.ar    1  UNL1       -0.0002
      8 C          59.8397   89.1129    8.1049 C.ar    1  UNL1        0.0013
      9 C          60.7601   89.1770    9.2876 C.ar    1  UNL1        0.0146
     10 C          61.2360   87.9113    9.9369 C.ar    1  UNL1        0.0498
     11 N          62.1401   87.6624   11.1077 N.am    1  UNL1       -0.2598
     12 C          62.8119   88.7126   11.9418 C.2     1  UNL1        0.2418
     13 O          63.6929   88.3104   13.0873 O.2     1  UNL1       -0.2739
     14 C          63.7598   91.1180   11.6860 C.2     1  UNL1        0.3580
     15 N          64.5950   91.2121   12.9284 N.2     1  UNL1       -0.0039
     16 C          65.7519   92.1652   12.9839 C.2     1  UNL1        0.3159
     17 C          66.0736   93.0242   11.7971 C.3     1  UNL1        0.2333
     18 C          65.2384   92.9301   10.5547 C.2     1  UNL1        0.3644
     19 O          65.5600   93.7891    9.3679 O.2     1  UNL1       -0.2422
     20 N          64.0815   91.9770   10.4992 N.am    1  UNL1        0.0289
     21 N          66.5871   92.2593   14.2263 N.pl3   1  UNL1       -0.1888
     22 C          68.0829   92.2010   14.1307 C.3     1  UNL1        0.2343
     23 C          68.9181   92.2951   15.3731 C.3     1  UNL1        0.1929
     24 O          68.2576   92.4475   16.7112 O.3     1  UNL1       -0.3449
     25 C          66.7618   92.5058   16.8068 C.3     1  UNL1        0.1929
     26 C          65.9266   92.4117   15.5644 C.3     1  UNL1        0.2343
@<TRIPOS>BOND
     1     3     2    1
     2     3     4    1
     3     4     5    1
     4     5     6   ar
     5     6     7   ar
     6     7     8   ar
     7     8     9   ar
     8     9    10   ar
     9    10    11    1
    10    11    12   am
    11    12    13    2
    12    12     1    1
    13     1    14    1
    14    14    15    1
    15    15    16    2
    16    16    21    1
    17    21    22    1
    18    22    23    1
    19    23    24    1
    20    24    25    1
    21    25    26    1
    22    16    17    1
    23    17    18    1
    24    18    19    2
    25    18    20    1
    26    11     3    1
    27    20    14    2
    28    10     5   ar
    29    26    21    1
@<TRIPOS>MOLECULE
*****
 26 29 0 0 0
SMALL
GASTEIGER

@<TRIPOS>ATOM
      1 C          63.1442   90.4819   12.6285 C.3     1  UNL1        0.2068
      2 C          65.7176   93.4257    9.9179 C.3     1  UNL1        0.0222
      3 C          65.8563   93.1707   11.3896 C.3     1  UNL1        0.0842
      4 C          66.8568   93.8117   12.3050 C.3     1  UNL1        0.0478
      5 C          66.6377   93.2671   13.6854 C.ar    1  UNL1       -0.0068
      6 C          67.3258   93.5351   14.9910 C.ar    1  UNL1       -0.0030
      7 C          66.8779   92.8255   16.2343 C.ar    1  UNL1       -0.0002
      8 C          65.7420   91.8479   16.1720 C.ar    1  UNL1        0.0013
      9 C          65.0539   91.5799   14.8664 C.ar    1  UNL1        0.0146
     10 C          65.5018   92.2895   13.6231 C.ar    1  UNL1        0.0498
     11 N          65.0188   92.2300   12.2042 N.am    1  UNL1       -0.2598
     12 C          63.8956   91.3790   11.6902 C.2     1  UNL1        0.2418
     13 O          63.5237   91.4252   10.2377 O.2     1  UNL1       -0.2739
     14 C          62.9631   89.0307   12.2951 C.2     1  UNL1        0.3580
     15 N          62.1831   88.6326   11.0773 N.2     1  UNL1       -0.0039
     16 C          62.0020   87.1814   10.7438 C.2     1  UNL1        0.3159
     17 C          62.6010   86.1283   11.6282 C.3     1  UNL1        0.2333
     18 C          63.3810   86.5263   12.8460 C.2     1  UNL1        0.3644
     19 O          63.9800   85.4733   13.7304 O.2     1  UNL1       -0.2422
     20 N          63.5621   87.9776   13.1794 N.am    1  UNL1        0.0289
     21 N          61.2220   86.7833    9.5260 N.pl3   1  UNL1       -0.1888
     22 C          61.8175   85.8307    8.5321 C.3     1  UNL1        0.2343
     23 C          61.0375   85.4326    7.3143 C.3     1  UNL1        0.1929
     24 O          59.6619   85.9871    7.0904 O.3     1  UNL1       -0.3449
     25 C          59.0664   86.9398    8.0842 C.3     1  UNL1        0.1929
     26 C          59.8464   87.3379    9.3020 C.3     1  UNL1        0.2343
@<TRIPOS>BOND
     1     3     2    1
     2     3     4    1
     3     4     5    1
     4     5     6   ar
     5     6     7   ar
     6     7     8   ar
     7     8     9   ar
     8     9    10   ar
     9    10    11    1
    10    11    12   am
    11    12    13    2
    12    12     1    1
    13     1    14    1
    14    14    15    1
    15    15    16    2
    16    16    21    1
    17    21    22    1
    18    22    23    1
    19    23    24    1
    20    24    25    1
    21    25    26    1
    22    16    17    1
    23    17    18    1
    24    18    19    2
    25    18    20    1
    26    11     3    1
    27    20    14    2
    28    10     5   ar
    29    26    21    1
@<TRIPOS>MOLECULE
*****
 26 29 0 0 0
SMALL
GASTEIGER

@<TRIPOS>ATOM
      1 C          63.4822   87.8732   12.3600 C.3     1  UNL1        0.2068
      2 C          59.6215   90.4626   11.3474 C.3     1  UNL1        0.0222
      3 C          60.1764   89.2981   10.5819 C.3     1  UNL1        0.0842
      4 C          59.6042   88.7174    9.3228 C.3     1  UNL1        0.0478
      5 C          60.4751   87.5702    8.9039 C.ar    1  UNL1       -0.0068
      6 C          60.4004   86.6259    7.7409 C.ar    1  UNL1       -0.0030
      7 C          61.4363   85.5533    7.5780 C.ar    1  UNL1       -0.0002
      8 C          62.5468   85.4250    8.5782 C.ar    1  UNL1        0.0013
      9 C          62.6214   86.3693    9.7412 C.ar    1  UNL1        0.0146
     10 C          61.5856   87.4419    9.9040 C.ar    1  UNL1        0.0498
     11 N          61.4010   88.5098   10.9411 N.am    1  UNL1       -0.2598
     12 C          62.2856   88.7477   12.1289 C.2     1  UNL1        0.2418
     13 O          61.9737   89.8601   13.0857 O.2     1  UNL1       -0.2739
     14 C          63.4109   86.7517   13.3536 C.2     1  UNL1        0.3580
     15 N          63.1755   85.3469   12.8834 N.2     1  UNL1       -0.0039
     16 C          63.1042   84.2255   13.8770 C.2     1  UNL1        0.3159
     17 C          63.2685   84.5088   15.3408 C.3     1  UNL1        0.2333
     18 C          63.5039   85.9135   15.8110 C.2     1  UNL1        0.3644
     19 O          63.6682   86.1969   17.2748 O.2     1  UNL1       -0.2422
     20 N          63.5752   87.0350   14.8174 N.am    1  UNL1        0.0289
     21 N          62.8688   82.8207   13.4068 N.pl3   1  UNL1       -0.1888
     22 C          62.1399   81.8478   14.2855 C.3     1  UNL1        0.2343
     23 C          61.9045   80.4430   13.8153 C.3     1  UNL1        0.1929
     24 O          62.3978   80.0110   12.4662 O.3     1  UNL1       -0.3449
     25 C          63.1266   80.9839   11.5875 C.3     1  UNL1        0.1929
     26 C          63.3621   82.3887   12.0577 C.3     1  UNL1        0.2343
@<TRIPOS>BOND
     1     3     2    1
     2     3     4    1
     3     4     5    1
     4     5     6   ar
     5     6     7   ar
     6     7     8   ar
     7     8     9   ar
     8     9    10   ar
     9    10    11    1
    10    11    12   am
    11    12    13    2
    12    12     1    1
    13     1    14    1
    14    14    15    1
    15    15    16    2
    16    16    21    1
    17    21    22    1
    18    22    23    1
    19    23    24    1
    20    24    25    1
    21    25    26    1
    22    16    17    1
    23    17    18    1
    24    18    19    2
    25    18    20    1
    26    11     3    1
    27    20    14    2
    28    10     5   ar
    29    26    21    1
@<TRIPOS>MOLECULE
*****
 26 29 0 0 0
SMALL
GASTEIGER

@<TRIPOS>ATOM
      1 C          60.9219   86.7573   11.1571 C.3     1  UNL1        0.2068
      2 C          63.2003   84.5184    7.6313 C.3     1  UNL1        0.0222
      3 C          63.2974   84.2544    9.1047 C.3     1  UNL1        0.0842
      4 C          64.1519   83.2094    9.7588 C.3     1  UNL1        0.0478
      5 C          63.9396   83.2982   11.2410 C.ar    1  UNL1       -0.0068
      6 C          64.5165   82.5197   12.3860 C.ar    1  UNL1       -0.0030
      7 C          64.1077   82.8410   13.7929 C.ar    1  UNL1       -0.0002
      8 C          63.1220   83.9409   14.0549 C.ar    1  UNL1        0.0013
      9 C          62.5451   84.7194   12.9100 C.ar    1  UNL1        0.0146
     10 C          62.9539   84.3981   11.5030 C.ar    1  UNL1        0.0498
     11 N          62.5570   84.9890   10.1827 N.am    1  UNL1       -0.2598
     12 C          61.5895   86.1166    9.9766 C.2     1  UNL1        0.2418
     13 O          61.2895   86.6035    8.5898 O.2     1  UNL1       -0.2739
     14 C          60.9873   88.2447   11.3398 C.2     1  UNL1        0.3580
     15 N          62.3093   88.9145   11.5715 N.2     1  UNL1       -0.0039
     16 C          62.3747   90.4019   11.7542 C.2     1  UNL1        0.3159
     17 C          61.1182   91.2195   11.7053 C.3     1  UNL1        0.2333
     18 C          59.7961   90.5498   11.4736 C.2     1  UNL1        0.3644
     19 O          58.5395   91.3673   11.4246 O.2     1  UNL1       -0.2422
     20 N          59.7307   89.0624   11.2909 N.am    1  UNL1        0.0289
     21 N          63.6968   91.0716   11.9859 N.pl3   1  UNL1       -0.1888
     22 C          64.3540   90.9886   13.3317 C.3     1  UNL1        0.2343
     23 C          65.6760   91.6584   13.5634 C.3     1  UNL1        0.1929
     24 O          66.3409   92.4112   12.4493 O.3     1  UNL1       -0.3449
     25 C          65.6836   92.4942   11.1035 C.3     1  UNL1        0.1929
     26 C          64.3616   91.8244   10.8718 C.3     1  UNL1        0.2343
@<TRIPOS>BOND
     1     3     2    1
     2     3     4    1
     3     4     5    1
     4     5     6   ar
     5     6     7   ar
     6     7     8   ar
     7     8     9   ar
     8     9    10   ar
     9    10    11    1
    10    11    12   am
    11    12    13    2
    12    12     1    1
    13     1    14    1
    14    14    15    1
    15    15    16    2
    16    16    21    1
    17    21    22    1
    18    22    23    1
    19    23    24    1
    20    24    25    1
    21    25    26    1
    22    16    17    1
    23    17    18    1
    24    18    19    2
    25    18    20    1
    26    11     3    1
    27    20    14    2
    28    10     5   ar
    29    26    21    1
