@<TRIPOS>MOLECULE
*****
 36 40 0 0 0
SMALL
GASTEIGER

@<TRIPOS>ATOM
      1 N          62.7894   90.5359   12.1223 N.3     1  UNL1       -0.2680
      2 C          63.4194   90.3045   10.7808 C.3     1  UNL1        0.0897
      3 C          62.6450   89.6138    9.6977 C.3     1  UNL1        0.0897
      4 N          61.2407   89.1544    9.9560 N.3     1  UNL1       -0.2680
      5 C          60.6106   89.3858   11.2975 C.3     1  UNL1        0.0897
      6 C          61.3850   90.0766   12.3806 C.3     1  UNL1        0.0897
      7 C          63.5637   91.2266   13.2054 C.3     1  UNL1        0.1064
      8 C          64.5522   90.4556   14.0291 C.3     1  UNL1        0.1483
      9 O          65.9280   91.0067   14.2599 O.3     1  UNL1       -0.3786
     10 H          66.4362   90.3887   14.8082 H       1  UNL1        0.2108
     11 C          63.3341   90.3391   16.7683 C.3     1  UNL1        0.0306
     12 C          63.5557   89.0751   15.9917 C.ar    1  UNL1       -0.0238
     13 C          64.1647   89.1332   14.6221 C.ar    1  UNL1        0.0015
     14 C          64.3863   87.8693   13.8455 C.ar    1  UNL1       -0.0020
     15 C          63.9989   86.5470   14.4384 C.ar    1  UNL1        0.0060
     16 C          63.3899   86.4888   15.8079 C.ar    1  UNL1        0.0748
     17 C          63.1683   87.7528   16.5846 C.ar    1  UNL1        0.0233
     18 C          62.5527   87.3854   17.9022 C.3     1  UNL1        0.2352
     19 O          62.3938   85.8944   17.9398 O.3     1  UNL1       -0.4404
     20 C          62.9113   85.3402   16.6456 C.2     1  UNL1        0.3413
     21 O          62.9442   83.8917   16.2571 O.2     1  UNL1       -0.2449
     22 C          60.4663   88.4637    8.8728 C.3     1  UNL1        0.1064
     23 C          60.3087   86.9722    8.8979 C.3     1  UNL1        0.1483
     24 O          59.2174   86.3199    8.1018 O.3     1  UNL1       -0.3786
     25 H          58.7092   86.9998    7.6323 H       1  UNL1        0.2108
     26 C          61.2422   86.1330    9.7191 C.ar    1  UNL1        0.0015
     27 C          61.1704   86.1780   11.2167 C.ar    1  UNL1       -0.0020
     28 C          62.1039   85.3388   12.0378 C.ar    1  UNL1        0.0060
     29 C          63.1093   84.4547   11.3613 C.ar    1  UNL1        0.0748
     30 C          63.1810   84.4097    9.8637 C.ar    1  UNL1        0.0233
     31 C          62.2475   85.2489    9.0426 C.ar    1  UNL1       -0.0238
     32 C          62.3192   85.2040    7.5450 C.3     1  UNL1        0.0306
     33 C          64.2678   83.4496    9.4804 C.3     1  UNL1        0.2352
     34 O          64.8677   82.9011   10.7411 O.3     1  UNL1       -0.4404
     35 C          64.1517   83.5223   11.9036 C.2     1  UNL1        0.3413
     36 O          64.4294   83.2576   13.3537 O.2     1  UNL1       -0.2449
@<TRIPOS>BOND
     1    11    12    1
     2    12    13   ar
     3    13     8    1
     4     8     9    1
     5     8     7    1
     6     7     1    1
     7     1     2    1
     8     2     3    1
     9     3     4    1
    10     4    22    1
    11    22    23    1
    12    23    24    1
    13    23    26    1
    14    26    27   ar
    15    27    28   ar
    16    28    29   ar
    17    29    30   ar
    18    30    31   ar
    19    31    32    1
    20    30    33    1
    21    33    34    1
    22    34    35    1
    23    35    36    2
    24     4     5    1
    25     5     6    1
    26    13    14   ar
    27    14    15   ar
    28    15    16   ar
    29    16    17   ar
    30    17    18    1
    31    18    19    1
    32    19    20    1
    33    20    21    2
    34    17    12   ar
    35     6     1    1
    36    20    16    1
    37    31    26   ar
    38    35    29    1
    39     9    10    1
    40    24    25    1
@<TRIPOS>MOLECULE
*****
 36 40 0 0 0
SMALL
GASTEIGER

@<TRIPOS>ATOM
      1 N          61.2346   89.1646    9.9338 N.3     1  UNL1       -0.2680
      2 C          60.5965   89.4090   11.2692 C.3     1  UNL1        0.0897
      3 C          61.3703   90.0947   12.3559 C.3     1  UNL1        0.0897
      4 N          62.7821   90.5361   12.1073 N.3     1  UNL1       -0.2680
      5 C          63.4203   90.2917   10.7720 C.3     1  UNL1        0.0897
      6 C          62.6466   89.6060    9.6852 C.3     1  UNL1        0.0897
      7 C          60.4609   88.4789    8.8471 C.3     1  UNL1        0.1064
      8 C          60.3095   86.9867    8.8613 C.3     1  UNL1        0.1483
      9 O          59.2269   86.3349    8.0530 O.3     1  UNL1       -0.3786
     10 H          59.2680   85.3733    8.1734 H       1  UNL1        0.2108
     11 C          62.3067   85.2011    7.5110 C.3     1  UNL1        0.0306
     12 C          62.2393   85.2533    9.0087 C.ar    1  UNL1       -0.0238
     13 C          61.2407   86.1461    9.6838 C.ar    1  UNL1        0.0015
     14 C          61.1733   86.1984   11.1813 C.ar    1  UNL1       -0.0020
     15 C          62.1044   85.3579   12.0038 C.ar    1  UNL1        0.0060
     16 C          63.1030   84.4651   11.3287 C.ar    1  UNL1        0.0748
     17 C          63.1704   84.4128    9.8312 C.ar    1  UNL1        0.0233
     18 C          64.2508   83.4449    9.4493 C.3     1  UNL1        0.2352
     19 O          64.8511   82.8990   10.7109 O.3     1  UNL1       -0.4404
     20 C          64.1417   83.5295   11.8724 C.2     1  UNL1        0.3413
     21 O          64.4219   83.2699   13.3230 O.2     1  UNL1       -0.2449
     22 C          63.5559   91.2218   13.1941 C.3     1  UNL1        0.1064
     23 C          64.5469   90.4479   14.0122 C.3     1  UNL1        0.1483
     24 O          65.9209   91.0019   14.2468 O.3     1  UNL1       -0.3786
     25 H          66.0031   91.8611   13.8041 H       1  UNL1        0.2108
     26 C          64.1638   89.1202   14.5955 C.ar    1  UNL1        0.0015
     27 C          64.3795   87.8635   13.8055 C.ar    1  UNL1       -0.0020
     28 C          63.9964   86.5358   14.3889 C.ar    1  UNL1        0.0060
     29 C          63.3975   86.4648   15.7623 C.ar    1  UNL1        0.0748
     30 C          63.1818   87.7215   16.5524 C.ar    1  UNL1        0.0233
     31 C          63.5649   89.0492   15.9689 C.ar    1  UNL1       -0.0238
     32 C          63.3491   90.3059   16.7589 C.3     1  UNL1        0.0306
     33 C          62.5759   87.3418   17.8709 C.3     1  UNL1        0.2352
     34 O          62.4172   85.8503   17.8958 O.3     1  UNL1       -0.4404
     35 C          62.9250   85.3083   16.5927 C.2     1  UNL1        0.3413
     36 O          62.9550   83.8636   16.1904 O.2     1  UNL1       -0.2449
@<TRIPOS>BOND
     1    11    12    1
     2    12    13   ar
     3    13     8    1
     4     8     9    1
     5     8     7    1
     6     7     1    1
     7     1     2    1
     8     2     3    1
     9     3     4    1
    10     4    22    1
    11    22    23    1
    12    23    24    1
    13    23    26    1
    14    26    27   ar
    15    27    28   ar
    16    28    29   ar
    17    29    30   ar
    18    30    31   ar
    19    31    32    1
    20    30    33    1
    21    33    34    1
    22    34    35    1
    23    35    36    2
    24     4     5    1
    25     5     6    1
    26    13    14   ar
    27    14    15   ar
    28    15    16   ar
    29    16    17   ar
    30    17    18    1
    31    18    19    1
    32    19    20    1
    33    20    21    2
    34    17    12   ar
    35     6     1    1
    36    20    16    1
    37    31    26   ar
    38    35    29    1
    39     9    10    1
    40    24    25    1
@<TRIPOS>MOLECULE
*****
 36 40 0 0 0
SMALL
GASTEIGER

@<TRIPOS>ATOM
      1 N          63.6797   87.0410   16.0419 N.3     1  UNL1       -0.2680
      2 C          62.8055   85.9438   16.5729 C.3     1  UNL1        0.0897
      3 C          62.9493   84.5478   16.0434 C.3     1  UNL1        0.0897
      4 N          63.9673   84.2489   14.9831 N.3     1  UNL1       -0.2680
      5 C          64.8415   85.3460   14.4521 C.3     1  UNL1        0.0897
      6 C          64.6977   86.7421   14.9814 C.3     1  UNL1        0.0897
      7 C          63.5360   88.4371   16.5712 C.3     1  UNL1        0.1064
      8 C          62.8619   89.4885   15.7405 C.3     1  UNL1        0.1483
      9 O          61.3758   89.6730   15.8257 O.3     1  UNL1       -0.3786
     10 H          61.1040   90.3880   15.2292 H       1  UNL1        0.2108
     11 C          62.2248   89.5850   12.8105 C.3     1  UNL1        0.0306
     12 C          63.3555   90.4037   13.3595 C.ar    1  UNL1       -0.0238
     13 C          63.6741   90.3554   14.8245 C.ar    1  UNL1        0.0015
     14 C          64.8047   91.1740   15.3735 C.ar    1  UNL1       -0.0020
     15 C          65.6168   92.0410   14.4576 C.ar    1  UNL1        0.0060
     16 C          65.2982   92.0892   12.9926 C.ar    1  UNL1        0.0748
     17 C          64.1676   91.2706   12.4435 C.ar    1  UNL1        0.0233
     18 C          64.0891   91.5201   10.9665 C.3     1  UNL1        0.2352
     19 O          65.1713   92.4930   10.6028 O.3     1  UNL1       -0.4404
     20 C          65.9186   92.8448   11.8549 C.2     1  UNL1        0.3413
     21 O          67.0820   93.7866   11.9523 O.2     1  UNL1       -0.2449
     22 C          64.1110   82.8528   14.4537 C.3     1  UNL1        0.1064
     23 C          63.4488   82.4677   13.1640 C.3     1  UNL1        0.1483
     24 O          63.2108   81.0213   12.8458 O.3     1  UNL1       -0.3786
     25 H          63.5419   80.4715   13.5731 H       1  UNL1        0.2108
     26 C          63.0246   83.5290   12.1926 C.ar    1  UNL1        0.0015
     27 C          62.1586   84.6640   12.6526 C.ar    1  UNL1       -0.0020
     28 C          61.7344   85.7253   11.6811 C.ar    1  UNL1        0.0060
     29 C          62.1764   85.6516   10.2496 C.ar    1  UNL1        0.0748
     30 C          63.0425   84.5165    9.7896 C.ar    1  UNL1        0.0233
     31 C          63.4666   83.4553   10.7611 C.ar    1  UNL1       -0.0238
     32 C          64.3327   82.3203   10.3010 C.3     1  UNL1        0.0306
     33 C          63.3199   84.7081    8.3280 C.3     1  UNL1        0.2352
     34 O          62.6252   85.9616    7.8847 O.3     1  UNL1       -0.4404
     35 C          61.9185   86.5446    9.0723 C.2     1  UNL1        0.3413
     36 O          61.0980   87.8003    9.0811 O.2     1  UNL1       -0.2449
@<TRIPOS>BOND
     1    11    12    1
     2    12    13   ar
     3    13     8    1
     4     8     9    1
     5     8     7    1
     6     7     1    1
     7     1     2    1
     8     2     3    1
     9     3     4    1
    10     4    22    1
    11    22    23    1
    12    23    24    1
    13    23    26    1
    14    26    27   ar
    15    27    28   ar
    16    28    29   ar
    17    29    30   ar
    18    30    31   ar
    19    31    32    1
    20    30    33    1
    21    33    34    1
    22    34    35    1
    23    35    36    2
    24     4     5    1
    25     5     6    1
    26    13    14   ar
    27    14    15   ar
    28    15    16   ar
    29    16    17   ar
    30    17    18    1
    31    18    19    1
    32    19    20    1
    33    20    21    2
    34    17    12   ar
    35     6     1    1
    36    20    16    1
    37    31    26   ar
    38    35    29    1
    39     9    10    1
    40    24    25    1
@<TRIPOS>MOLECULE
*****
 36 40 0 0 0
SMALL
GASTEIGER

@<TRIPOS>ATOM
      1 N          63.9020   84.2294   15.0168 N.3     1  UNL1       -0.2680
      2 C          64.7741   85.3168   14.4628 C.3     1  UNL1        0.0897
      3 C          64.6517   86.7167   14.9874 C.3     1  UNL1        0.0897
      4 N          63.6572   87.0292   16.0659 N.3     1  UNL1       -0.2680
      5 C          62.7851   85.9418   16.6200 C.3     1  UNL1        0.0897
      6 C          62.9075   84.5418   16.0954 C.3     1  UNL1        0.0897
      7 C          64.0244   82.8294   14.4922 C.3     1  UNL1        0.1064
      8 C          63.3401   82.4450   13.2140 C.3     1  UNL1        0.1483
      9 O          63.0355   81.0039   12.9303 O.3     1  UNL1       -0.3786
     10 H          62.5954   80.9299   12.0692 H       1  UNL1        0.2108
     11 C          64.2701   82.2312   10.3697 C.3     1  UNL1        0.0306
     12 C          63.4254   83.3948   10.7972 C.ar    1  UNL1       -0.0238
     13 C          62.9604   83.5017   12.2193 C.ar    1  UNL1        0.0015
     14 C          62.1157   84.6652   12.6468 C.ar    1  UNL1       -0.0020
     15 C          61.7360   85.7218   11.6522 C.ar    1  UNL1        0.0060
     16 C          62.2010   85.6150   10.2301 C.ar    1  UNL1        0.0748
     17 C          63.0456   84.4515    9.8026 C.ar    1  UNL1        0.0233
     18 C          63.3535   84.6134    8.3435 C.3     1  UNL1        0.2352
     19 O          62.6990   85.8770    7.8692 O.3     1  UNL1       -0.4404
     20 C          61.9867   86.4960    9.0351 C.2     1  UNL1        0.3413
     21 O          61.1986   87.7721    9.0105 O.2     1  UNL1       -0.2449
     22 C          63.5348   88.4292   16.5905 C.3     1  UNL1        0.1064
     23 C          62.8564   89.4826   15.7657 C.3     1  UNL1        0.1483
     24 O          61.3701   89.6636   15.8554 O.3     1  UNL1       -0.3786
     25 H          61.0041   89.0247   16.4869 H       1  UNL1        0.2108
     26 C          63.6644   90.3549   14.8513 C.ar    1  UNL1        0.0015
     27 C          64.7851   91.1852   15.4033 C.ar    1  UNL1       -0.0020
     28 C          65.5931   92.0575   14.4889 C.ar    1  UNL1        0.0060
     29 C          65.2803   92.0996   13.0224 C.ar    1  UNL1        0.0748
     30 C          64.1596   91.2693   12.4705 C.ar    1  UNL1        0.0233
     31 C          63.3517   90.3970   13.3849 C.ar    1  UNL1       -0.0238
     32 C          62.2310   89.5668   12.8329 C.3     1  UNL1        0.0306
     33 C          64.0853   91.5149   10.9926 C.3     1  UNL1        0.2352
     34 O          65.1601   92.4970   10.6312 O.3     1  UNL1       -0.4404
     35 C          65.8986   92.8583   11.8857 C.2     1  UNL1        0.3413
     36 O          67.0528   93.8111   11.9859 O.2     1  UNL1       -0.2449
@<TRIPOS>BOND
     1    11    12    1
     2    12    13   ar
     3    13     8    1
     4     8     9    1
     5     8     7    1
     6     7     1    1
     7     1     2    1
     8     2     3    1
     9     3     4    1
    10     4    22    1
    11    22    23    1
    12    23    24    1
    13    23    26    1
    14    26    27   ar
    15    27    28   ar
    16    28    29   ar
    17    29    30   ar
    18    30    31   ar
    19    31    32    1
    20    30    33    1
    21    33    34    1
    22    34    35    1
    23    35    36    2
    24     4     5    1
    25     5     6    1
    26    13    14   ar
    27    14    15   ar
    28    15    16   ar
    29    16    17   ar
    30    17    18    1
    31    18    19    1
    32    19    20    1
    33    20    21    2
    34    17    12   ar
    35     6     1    1
    36    20    16    1
    37    31    26   ar
    38    35    29    1
    39     9    10    1
    40    24    25    1
@<TRIPOS>MOLECULE
*****
 36 40 0 0 0
SMALL
GASTEIGER

@<TRIPOS>ATOM
      1 N          62.5977   84.8964   10.7804 N.3     1  UNL1       -0.2680
      2 C          61.6394   85.6702   11.6365 C.3     1  UNL1        0.0897
      3 C          61.0989   86.9848   11.1572 C.3     1  UNL1        0.0897
      4 N          61.5166   87.5256    9.8219 N.3     1  UNL1       -0.2680
      5 C          62.4750   86.7518    8.9658 C.3     1  UNL1        0.0897
      6 C          63.0155   85.4372    9.4450 C.3     1  UNL1        0.0897
      7 C          63.1383   83.5819   11.2596 C.3     1  UNL1        0.1064
      8 C          63.9937   83.5266   12.4905 C.3     1  UNL1        0.1483
      9 O          65.0572   82.4765   12.6183 O.3     1  UNL1       -0.3786
     10 H          65.5143   82.5808   13.4675 H       1  UNL1        0.2108
     11 C          62.3932   82.7681   14.9120 C.3     1  UNL1        0.0306
     12 C          62.9853   84.1421   14.8046 C.ar    1  UNL1       -0.0238
     13 C          63.7856   84.5214   13.5938 C.ar    1  UNL1        0.0015
     14 C          64.3777   85.8953   13.4863 C.ar    1  UNL1       -0.0020
     15 C          64.1696   86.8901   14.5895 C.ar    1  UNL1        0.0060
     16 C          63.3694   86.5109   15.8002 C.ar    1  UNL1        0.0748
     17 C          62.7772   85.1369   15.9078 C.ar    1  UNL1        0.0233
     18 C          62.0406   85.0503   17.2115 C.3     1  UNL1        0.2352
     19 O          62.1775   86.3708   17.9098 O.3     1  UNL1       -0.4404
     20 C          62.9987   87.2735   17.0376 C.2     1  UNL1        0.3413
     21 O          63.3819   88.6901   17.3482 O.2     1  UNL1       -0.2449
     22 C          60.9761   88.8401    9.3428 C.3     1  UNL1        0.1064
     23 C          60.9360   90.0179   10.2709 C.3     1  UNL1        0.1483
     24 O          59.6192   90.6224   10.6589 O.3     1  UNL1       -0.3786
     25 H          58.9001   90.1364   10.2258 H       1  UNL1        0.2108
     26 C          62.2126   90.5910   10.8109 C.ar    1  UNL1        0.0015
     27 C          63.0982   91.4162    9.9250 C.ar    1  UNL1       -0.0020
     28 C          64.3748   91.9893   10.4651 C.ar    1  UNL1        0.0060
     29 C          64.7659   91.7372   11.8912 C.ar    1  UNL1        0.0748
     30 C          63.8803   90.9120   12.7771 C.ar    1  UNL1        0.0233
     31 C          62.6037   90.3389   12.2369 C.ar    1  UNL1       -0.0238
     32 C          61.7181   89.5137   13.1229 C.3     1  UNL1        0.0306
     33 C          64.5224   90.8333   14.1304 C.3     1  UNL1        0.2352
     34 O          65.8049   91.6099   14.0808 O.3     1  UNL1       -0.4404
     35 C          65.9553   92.1685   12.6970 C.2     1  UNL1        0.3413
     36 O          67.0951   93.0106   12.2052 O.2     1  UNL1       -0.2449
@<TRIPOS>BOND
     1    11    12    1
     2    12    13   ar
     3    13     8    1
     4     8     9    1
     5     8     7    1
     6     7     1    1
     7     1     2    1
     8     2     3    1
     9     3     4    1
    10     4    22    1
    11    22    23    1
    12    23    24    1
    13    23    26    1
    14    26    27   ar
    15    27    28   ar
    16    28    29   ar
    17    29    30   ar
    18    30    31   ar
    19    31    32    1
    20    30    33    1
    21    33    34    1
    22    34    35    1
    23    35    36    2
    24     4     5    1
    25     5     6    1
    26    13    14   ar
    27    14    15   ar
    28    15    16   ar
    29    16    17   ar
    30    17    18    1
    31    18    19    1
    32    19    20    1
    33    20    21    2
    34    17    12   ar
    35     6     1    1
    36    20    16    1
    37    31    26   ar
    38    35    29    1
    39     9    10    1
    40    24    25    1
@<TRIPOS>MOLECULE
*****
 36 40 0 0 0
SMALL
GASTEIGER

@<TRIPOS>ATOM
      1 N          61.5260   87.5340    9.8045 N.3     1  UNL1       -0.2680
      2 C          61.1201   86.9983   11.1455 C.3     1  UNL1        0.0897
      3 C          61.6611   85.6832   11.6228 C.3     1  UNL1        0.0897
      4 N          62.6080   84.9038   10.7591 N.3     1  UNL1       -0.2680
      5 C          63.0140   85.4395    9.4182 C.3     1  UNL1        0.0897
      6 C          62.4730   86.7546    8.9408 C.3     1  UNL1        0.0897
      7 C          60.9851   88.8491    9.3272 C.3     1  UNL1        0.1064
      8 C          60.9443   90.0253   10.2571 C.3     1  UNL1        0.1483
      9 O          59.6272   90.6289   10.6457 O.3     1  UNL1       -0.3786
     10 H          59.7783   91.3746   11.2474 H       1  UNL1        0.2108
     11 C          61.7159   89.5332   13.1142 C.3     1  UNL1        0.0306
     12 C          62.6065   90.3519   12.2272 C.ar    1  UNL1       -0.0238
     13 C          62.2207   90.5979   10.7986 C.ar    1  UNL1        0.0015
     14 C          63.1112   91.4165    9.9116 C.ar    1  UNL1       -0.0020
     15 C          64.3875   91.9891   10.4531 C.ar    1  UNL1        0.0060
     16 C          64.7733   91.7430   11.8816 C.ar    1  UNL1        0.0748
     17 C          63.8828   90.9244   12.7686 C.ar    1  UNL1        0.0233
     18 C          64.5202   90.8508   14.1244 C.3     1  UNL1        0.2352
     19 O          65.8047   91.6239   14.0753 O.3     1  UNL1       -0.4404
     20 C          65.9611   92.1753   12.6891 C.2     1  UNL1        0.3413
     21 O          67.1046   93.0121   12.1970 O.2     1  UNL1       -0.2449
     22 C          63.1490   83.5887   11.2365 C.3     1  UNL1        0.1064
     23 C          64.0051   83.5319   12.4669 C.3     1  UNL1        0.1483
     24 O          65.0740   82.4867   12.5892 O.3     1  UNL1       -0.3786
     25 H          65.0778   81.9334   11.7924 H       1  UNL1        0.2108
     26 C          63.7924   84.5204   13.5749 C.ar    1  UNL1        0.0015
     27 C          64.3882   85.8937   13.4795 C.ar    1  UNL1       -0.0020
     28 C          64.1754   86.8821   14.5876 C.ar    1  UNL1        0.0060
     29 C          63.3668   86.4972   15.7910 C.ar    1  UNL1        0.0748
     30 C          62.7711   85.1239   15.8863 C.ar    1  UNL1        0.0233
     31 C          62.9838   84.1355   14.7783 C.ar    1  UNL1       -0.0238
     32 C          62.3881   82.7622   14.8736 C.3     1  UNL1        0.0306
     33 C          62.0262   85.0309   17.1849 C.3     1  UNL1        0.2352
     34 O          62.1616   86.3469   17.8922 O.3     1  UNL1       -0.4404
     35 C          62.9901   87.2530   17.0307 C.2     1  UNL1        0.3413
     36 O          63.3745   88.6668   17.3524 O.2     1  UNL1       -0.2449
@<TRIPOS>BOND
     1    11    12    1
     2    12    13   ar
     3    13     8    1
     4     8     9    1
     5     8     7    1
     6     7     1    1
     7     1     2    1
     8     2     3    1
     9     3     4    1
    10     4    22    1
    11    22    23    1
    12    23    24    1
    13    23    26    1
    14    26    27   ar
    15    27    28   ar
    16    28    29   ar
    17    29    30   ar
    18    30    31   ar
    19    31    32    1
    20    30    33    1
    21    33    34    1
    22    34    35    1
    23    35    36    2
    24     4     5    1
    25     5     6    1
    26    13    14   ar
    27    14    15   ar
    28    15    16   ar
    29    16    17   ar
    30    17    18    1
    31    18    19    1
    32    19    20    1
    33    20    21    2
    34    17    12   ar
    35     6     1    1
    36    20    16    1
    37    31    26   ar
    38    35    29    1
    39     9    10    1
    40    24    25    1
@<TRIPOS>MOLECULE
*****
 36 40 0 0 0
SMALL
GASTEIGER

@<TRIPOS>ATOM
      1 N          64.2931   84.4275   15.2869 N.3     1  UNL1       -0.2680
      2 C          63.3234   84.7057   16.3969 C.3     1  UNL1        0.0897
      3 C          63.0369   86.1203   16.8055 C.3     1  UNL1        0.0897
      4 N          63.7200   87.2566   16.1040 N.3     1  UNL1       -0.2680
      5 C          64.6897   86.9784   14.9939 C.3     1  UNL1        0.0897
      6 C          64.9763   85.5638   14.5853 C.3     1  UNL1        0.0897
      7 C          64.5797   83.0130   14.8783 C.3     1  UNL1        0.1064
      8 C          63.7447   82.3540   13.8207 C.3     1  UNL1        0.1483
      9 O          63.1144   81.0191   14.0863 O.3     1  UNL1       -0.3786
     10 H          62.6126   80.7373   13.3055 H       1  UNL1        0.2108
     11 C          61.7979   84.6241   13.5812 C.3     1  UNL1        0.0306
     12 C          62.5666   84.1651   12.3776 C.ar    1  UNL1       -0.0238
     13 C          63.5400   83.0301   12.4973 C.ar    1  UNL1        0.0015
     14 C          64.3086   82.5711   11.2938 C.ar    1  UNL1       -0.0020
     15 C          64.1039   83.2471    9.9705 C.ar    1  UNL1        0.0060
     16 C          63.1305   84.3821    9.8508 C.ar    1  UNL1        0.0748
     17 C          62.3619   84.8411   11.0543 C.ar    1  UNL1        0.0233
     18 C          61.4775   85.9773   10.6339 C.3     1  UNL1        0.2352
     19 O          61.6995   86.2205    9.1705 O.3     1  UNL1       -0.4404
     20 C          62.7212   85.2346    8.6865 C.2     1  UNL1        0.3413
     21 O          63.2420   85.1213    7.2844 O.2     1  UNL1       -0.2449
     22 C          63.4335   88.6711   16.5126 C.3     1  UNL1        0.1064
     23 C          62.7817   89.6140   15.5450 C.3     1  UNL1        0.1483
     24 O          61.2863   89.7190   15.4921 O.3     1  UNL1       -0.3786
     25 H          60.8965   89.1148   16.1432 H       1  UNL1        0.2108
     26 C          63.6252   90.4517   14.6304 C.ar    1  UNL1        0.0015
     27 C          64.7804   91.2336   15.1819 C.ar    1  UNL1       -0.0020
     28 C          65.6239   92.0713   14.2673 C.ar    1  UNL1        0.0060
     29 C          65.3123   92.1272   12.8011 C.ar    1  UNL1        0.0748
     30 C          64.1571   91.3454   12.2495 C.ar    1  UNL1        0.0233
     31 C          63.3135   90.5076   13.1642 C.ar    1  UNL1       -0.0238
     32 C          62.1583   89.7258   12.6127 C.3     1  UNL1        0.0306
     33 C          64.0922   91.5945   10.7718 C.3     1  UNL1        0.2352
     34 O          65.2073   92.5304   10.4101 O.3     1  UNL1       -0.4404
     35 C          65.9614   92.8596   11.6642 C.2     1  UNL1        0.3413
     36 O          67.1549   93.7626   11.7640 O.2     1  UNL1       -0.2449
@<TRIPOS>BOND
     1    11    12    1
     2    12    13   ar
     3    13     8    1
     4     8     9    1
     5     8     7    1
     6     7     1    1
     7     1     2    1
     8     2     3    1
     9     3     4    1
    10     4    22    1
    11    22    23    1
    12    23    24    1
    13    23    26    1
    14    26    27   ar
    15    27    28   ar
    16    28    29   ar
    17    29    30   ar
    18    30    31   ar
    19    31    32    1
    20    30    33    1
    21    33    34    1
    22    34    35    1
    23    35    36    2
    24     4     5    1
    25     5     6    1
    26    13    14   ar
    27    14    15   ar
    28    15    16   ar
    29    16    17   ar
    30    17    18    1
    31    18    19    1
    32    19    20    1
    33    20    21    2
    34    17    12   ar
    35     6     1    1
    36    20    16    1
    37    31    26   ar
    38    35    29    1
    39     9    10    1
    40    24    25    1
@<TRIPOS>MOLECULE
*****
 36 40 0 0 0
SMALL
GASTEIGER

@<TRIPOS>ATOM
      1 N          62.7997   89.1058   12.3053 N.3     1  UNL1       -0.2680
      2 C          63.5569   88.5737   13.4858 C.3     1  UNL1        0.0897
      3 C          64.5629   89.4401   14.1838 C.3     1  UNL1        0.0897
      4 N          64.8118   90.8384   13.7014 N.3     1  UNL1       -0.2680
      5 C          64.0545   91.3704   12.5209 C.3     1  UNL1        0.0897
      6 C          63.0485   90.5041   11.8228 C.3     1  UNL1        0.0897
      7 C          61.7936   88.2395   11.6072 C.3     1  UNL1        0.1064
      8 C          62.2539   87.1092   10.7350 C.3     1  UNL1        0.1483
      9 O          62.4558   87.3303    9.2651 O.3     1  UNL1       -0.3786
     10 H          62.7522   86.5044    8.8517 H       1  UNL1        0.2108
     11 C          63.1409   84.8398    8.9848 C.3     1  UNL1        0.0306
     12 C          62.9558   84.6231   10.4575 C.ar    1  UNL1       -0.0238
     13 C          62.5123   85.7578   11.3326 C.ar    1  UNL1        0.0015
     14 C          62.3272   85.5412   12.8052 C.ar    1  UNL1       -0.0020
     15 C          62.5856   84.1899   13.4029 C.ar    1  UNL1        0.0060
     16 C          63.0291   83.0552   12.5278 C.ar    1  UNL1        0.0748
     17 C          63.2142   83.2718   11.0551 C.ar    1  UNL1        0.0233
     18 C          63.6568   81.9737   10.4476 C.3     1  UNL1        0.2352
     19 O          63.7452   80.9548   11.5449 O.3     1  UNL1       -0.4404
     20 C          63.3573   81.6232   12.8305 C.2     1  UNL1        0.3413
     21 O          63.3065   80.9736   14.1816 O.2     1  UNL1       -0.2449
     22 C          65.8178   91.7047   14.3995 C.3     1  UNL1        0.1064
     23 C          67.0565   92.1464   13.6779 C.3     1  UNL1        0.1483
     24 O          68.4038   91.6858   14.1498 O.3     1  UNL1       -0.3786
     25 H          68.2964   91.1134   14.9255 H       1  UNL1        0.2108
     26 C          66.9479   93.0487   12.4846 C.ar    1  UNL1        0.0015
     27 C          66.1991   94.3442   12.5895 C.ar    1  UNL1       -0.0020
     28 C          66.0905   95.2464   11.3961 C.ar    1  UNL1        0.0060
     29 C          66.7307   94.8532   10.0979 C.ar    1  UNL1        0.0748
     30 C          67.4796   93.5577    9.9930 C.ar    1  UNL1        0.0233
     31 C          67.5881   92.6555   11.1864 C.ar    1  UNL1       -0.0238
     32 C          68.3370   91.3600   11.0815 C.3     1  UNL1        0.0306
     33 C          68.0029   93.4369    8.5925 C.3     1  UNL1        0.2352
     34 O          67.5774   94.6578    7.8318 O.3     1  UNL1       -0.4404
     35 C          66.7912   95.5331    8.7621 C.2     1  UNL1        0.3413
     36 O          66.1739   96.8559    8.4174 O.2     1  UNL1       -0.2449
@<TRIPOS>BOND
     1    11    12    1
     2    12    13   ar
     3    13     8    1
     4     8     9    1
     5     8     7    1
     6     7     1    1
     7     1     2    1
     8     2     3    1
     9     3     4    1
    10     4    22    1
    11    22    23    1
    12    23    24    1
    13    23    26    1
    14    26    27   ar
    15    27    28   ar
    16    28    29   ar
    17    29    30   ar
    18    30    31   ar
    19    31    32    1
    20    30    33    1
    21    33    34    1
    22    34    35    1
    23    35    36    2
    24     4     5    1
    25     5     6    1
    26    13    14   ar
    27    14    15   ar
    28    15    16   ar
    29    16    17   ar
    30    17    18    1
    31    18    19    1
    32    19    20    1
    33    20    21    2
    34    17    12   ar
    35     6     1    1
    36    20    16    1
    37    31    26   ar
    38    35    29    1
    39     9    10    1
    40    24    25    1
@<TRIPOS>MOLECULE
*****
 36 40 0 0 0
SMALL
GASTEIGER

@<TRIPOS>ATOM
      1 N          63.9362   86.2537   15.6823 N.3     1  UNL1       -0.2680
      2 C          64.4845   87.1592   14.6194 C.3     1  UNL1        0.0897
      3 C          64.2877   88.6425   14.7233 C.3     1  UNL1        0.0897
      4 N          63.5426   89.2205   15.8899 N.3     1  UNL1       -0.2680
      5 C          62.9944   88.3150   16.9527 C.3     1  UNL1        0.0897
      6 C          63.1912   86.8316   16.8489 C.3     1  UNL1        0.0897
      7 C          64.1330   84.7703   15.5785 C.3     1  UNL1        0.1064
      8 C          63.2271   83.9528   14.7061 C.3     1  UNL1        0.1483
      9 O          62.5861   82.7093   15.2474 O.3     1  UNL1       -0.3786
     10 H          62.0358   82.3035   14.5594 H       1  UNL1        0.2108
     11 C          64.5970   82.5504   12.4352 C.3     1  UNL1        0.0306
     12 C          63.6471   83.6775   12.1570 C.ar    1  UNL1       -0.0238
     13 C          62.9621   84.3788   13.2924 C.ar    1  UNL1        0.0015
     14 C          62.0124   85.5058   13.0142 C.ar    1  UNL1       -0.0020
     15 C          61.7474   85.9318   11.6006 C.ar    1  UNL1        0.0060
     16 C          62.4323   85.2306   10.4652 C.ar    1  UNL1        0.0748
     17 C          63.3821   84.1035   10.7433 C.ar    1  UNL1        0.0233
     18 C          63.9063   83.6040    9.4296 C.3     1  UNL1        0.2352
     19 O          63.2803   84.4225    8.3396 O.3     1  UNL1       -0.4404
     20 C          62.3694   85.4278    8.9795 C.2     1  UNL1        0.3413
     21 O          61.5409   86.4506    8.2601 O.2     1  UNL1       -0.2449
     22 C          63.3459   90.7039   15.9936 C.3     1  UNL1        0.1064
     23 C          64.5217   91.6270   15.8701 C.3     1  UNL1        0.1483
     24 O          65.0008   92.3954   17.0659 O.3     1  UNL1       -0.3786
     25 H          64.4449   92.1817   17.8315 H       1  UNL1        0.2108
     26 C          65.2184   91.7816   14.5507 C.ar    1  UNL1        0.0015
     27 C          64.4184   92.0038   13.3015 C.ar    1  UNL1       -0.0020
     28 C          65.1152   92.1584   11.9822 C.ar    1  UNL1        0.0060
     29 C          66.6120   92.0908   11.9122 C.ar    1  UNL1        0.0748
     30 C          67.4121   91.8687   13.1614 C.ar    1  UNL1        0.0233
     31 C          66.7153   91.7141   14.4807 C.ar    1  UNL1       -0.0238
     32 C          67.5153   91.4919   15.7299 C.3     1  UNL1        0.0306
     33 C          68.8638   91.8479   12.7845 C.3     1  UNL1        0.2352
     34 O          68.9609   92.0572   11.3022 O.3     1  UNL1       -0.4404
     35 C          67.5693   92.2073   10.7631 C.2     1  UNL1        0.3413
     36 O          67.1997   92.4341    9.3272 O.2     1  UNL1       -0.2449
@<TRIPOS>BOND
     1    11    12    1
     2    12    13   ar
     3    13     8    1
     4     8     9    1
     5     8     7    1
     6     7     1    1
     7     1     2    1
     8     2     3    1
     9     3     4    1
    10     4    22    1
    11    22    23    1
    12    23    24    1
    13    23    26    1
    14    26    27   ar
    15    27    28   ar
    16    28    29   ar
    17    29    30   ar
    18    30    31   ar
    19    31    32    1
    20    30    33    1
    21    33    34    1
    22    34    35    1
    23    35    36    2
    24     4     5    1
    25     5     6    1
    26    13    14   ar
    27    14    15   ar
    28    15    16   ar
    29    16    17   ar
    30    17    18    1
    31    18    19    1
    32    19    20    1
    33    20    21    2
    34    17    12   ar
    35     6     1    1
    36    20    16    1
    37    31    26   ar
    38    35    29    1
    39     9    10    1
    40    24    25    1
