@<TRIPOS>MOLECULE
*****
 32 35 0 0 0
SMALL
GASTEIGER

@<TRIPOS>ATOM
      1 C          63.7116   89.8590   12.7554 C.2     1  UNL1        0.2253
      2 O          63.0744   90.7033   11.6920 O.2     1  UNL1       -0.2749
      3 N          63.5108   88.3724   12.7533 N.am    1  UNL1       -0.2761
      4 C          62.6728   87.7303   11.6878 C.3     1  UNL1        0.1148
      5 C          62.4720   86.2439   11.6857 C.3     1  UNL1        0.1123
      6 N          63.1092   85.3995   12.7492 N.pl3   1  UNL1       -0.3057
      7 C          63.9473   86.0416   13.8147 C.3     1  UNL1        0.0927
      8 C          64.5846   85.1972   14.8781 C.3     1  UNL1        0.0232
      9 C          64.1481   87.5280   13.8168 C.3     1  UNL1        0.1131
     10 C          62.9084   83.9129   12.7471 C.ar    1  UNL1        0.0503
     11 C          62.4494   83.2164   13.9937 C.ar    1  UNL1        0.0170
     12 C          62.2486   81.7298   13.9915 C.ar    1  UNL1        0.0332
     13 C          62.5068   80.9399   12.7428 C.ar    1  UNL1        0.1675
     14 F          62.3060   79.4534   12.7406 F       1  UNL1       -0.2018
     15 C          62.9659   81.6366   11.4962 C.ar    1  UNL1        0.1686
     16 F          63.2242   80.8467   10.2474 F       1  UNL1       -0.2018
     17 C          63.1667   83.1230   11.4983 C.ar    1  UNL1        0.0465
     18 C          65.0412   89.3821   14.6906 C.3     1  UNL1        0.0096
     19 C          64.5497   90.5010   13.8210 C.3     1  UNL1        0.0788
     20 C          64.7339   91.9896   13.8348 C.3     1  UNL1        0.0360
     21 C          66.0811   92.5758   14.1375 C.3     1  UNL1        0.1275
     22 N          67.4675   93.1482   14.1293 N.am    1  UNL1       -0.2839
     23 C          67.8548   93.4449   15.5477 C.2     1  UNL1        0.3068
     24 O          69.1601   94.0283   16.0017 O.2     1  UNL1       -0.2524
     25 N          66.7079   93.0559   16.4326 N.am    1  UNL1       -0.2384
     26 C          65.6116   92.5187   15.5609 C.2     1  UNL1        0.2451
     27 O          64.2796   92.0132   16.0304 O.2     1  UNL1       -0.2730
     28 H          68.0253   93.3021   13.3328 H       1  UNL1        0.1513
     29 H          66.6795   93.1386   17.4132 H       1  UNL1        0.1591
     30 C          66.2691   92.5103   12.6507 C.3     1  UNL1        0.0249
     31 C          67.0892   92.1062   11.4616 C.3     1  UNL1        0.0021
     32 C          65.7744   92.8009   11.2648 C.3     1  UNL1        0.0021
@<TRIPOS>BOND
     1    19    18    1
     2    19    20    1
     3    21    20    1
     4    21    30    1
     5    30    31    1
     6    31    32    1
     7    21    22    1
     8    22    23   am
     9    23    24    2
    10    23    25   am
    11    25    26   am
    12    26    27    2
    13    19     1    1
    14     1     2    2
    15     1     3   am
    16     3     4    1
    17     4     5    1
    18     5     6    1
    19     6    10    1
    20    10    11   ar
    21    11    12   ar
    22    12    13   ar
    23    13    14    1
    24    13    15   ar
    25    15    16    1
    26    15    17   ar
    27     6     7    1
    28     7     8    1
    29     7     9    1
    30    26    21    1
    31     9     3    1
    32    32    30    1
    33    17    10   ar
    34    22    28    1
    35    25    29    1
@<TRIPOS>MOLECULE
*****
 32 35 0 0 0
SMALL
GASTEIGER

@<TRIPOS>ATOM
      1 C          63.2676   90.1708   12.1666 C.2     1  UNL1        0.2253
      2 O          62.4338   90.8907   11.1485 O.2     1  UNL1       -0.2749
      3 N          63.1371   88.6851   12.3279 N.am    1  UNL1       -0.2761
      4 C          62.1728   87.9195   11.4712 C.3     1  UNL1        0.1148
      5 C          62.0424   86.4340   11.6326 C.3     1  UNL1        0.1123
      6 N          62.8762   85.7141   12.6507 N.pl3   1  UNL1       -0.3057
      7 C          63.8404   86.4797   13.5074 C.3     1  UNL1        0.0927
      8 C          64.6742   85.7597   14.5255 C.3     1  UNL1        0.0232
      9 C          63.9708   87.9652   13.3460 C.3     1  UNL1        0.1131
     10 C          62.7457   84.2284   12.8120 C.ar    1  UNL1        0.0503
     11 C          62.3819   83.6480   14.1464 C.ar    1  UNL1        0.0170
     12 C          62.2514   82.1624   14.3078 C.ar    1  UNL1        0.0332
     13 C          62.4847   81.2572   13.1346 C.ar    1  UNL1        0.1675
     14 F          62.3542   79.7717   13.2959 F       1  UNL1       -0.2018
     15 C          62.8484   81.8377   11.8001 C.ar    1  UNL1        0.1686
     16 F          63.0817   80.9326   10.6270 F       1  UNL1       -0.2018
     17 C          62.9789   83.3233   11.6389 C.ar    1  UNL1        0.0465
     18 C          63.5945   91.0334   14.3777 C.3     1  UNL1        0.0096
     19 C          64.2318   90.9364   13.0233 C.3     1  UNL1        0.0788
     20 C          65.5275   91.4219   12.4443 C.3     1  UNL1        0.0360
     21 C          65.8941   92.8734   12.5386 C.3     1  UNL1        0.1275
     22 N          66.3623   94.2467   12.9190 N.am    1  UNL1       -0.2839
     23 C          66.0882   95.1659   11.7658 C.2     1  UNL1        0.3068
     24 O          66.3975   96.6328   11.7147 O.2     1  UNL1       -0.2524
     25 N          65.4506   94.3608   10.6726 N.am    1  UNL1       -0.2384
     26 C          65.3306   92.9438   11.1503 C.2     1  UNL1        0.2451
     27 O          64.7491   91.7985   10.3755 O.2     1  UNL1       -0.2730
     28 H          66.7768   94.5002   13.7753 H       1  UNL1        0.1513
     29 H          65.1616   94.7023    9.7956 H       1  UNL1        0.1591
     30 C          66.3809   92.4995   13.9072 C.3     1  UNL1        0.0249
     31 C          66.3853   92.7231   15.3905 C.3     1  UNL1        0.0021
     32 C          67.2198   91.6284   14.7945 C.3     1  UNL1        0.0021
@<TRIPOS>BOND
     1    19    18    1
     2    19    20    1
     3    21    20    1
     4    21    30    1
     5    30    31    1
     6    31    32    1
     7    21    22    1
     8    22    23   am
     9    23    24    2
    10    23    25   am
    11    25    26   am
    12    26    27    2
    13    19     1    1
    14     1     2    2
    15     1     3   am
    16     3     4    1
    17     4     5    1
    18     5     6    1
    19     6    10    1
    20    10    11   ar
    21    11    12   ar
    22    12    13   ar
    23    13    14    1
    24    13    15   ar
    25    15    16    1
    26    15    17   ar
    27     6     7    1
    28     7     8    1
    29     7     9    1
    30    26    21    1
    31     9     3    1
    32    32    30    1
    33    17    10   ar
    34    22    28    1
    35    25    29    1
@<TRIPOS>MOLECULE
*****
 32 35 0 0 0
SMALL
GASTEIGER

@<TRIPOS>ATOM
      1 C          62.2035   86.9053   11.5433 C.2     1  UNL1        0.2253
      2 O          61.9354   85.5657   12.1627 O.2     1  UNL1       -0.2749
      3 N          63.0319   87.9184   12.2766 N.am    1  UNL1       -0.2761
      4 C          63.5921   87.5919   13.6291 C.3     1  UNL1        0.1148
      5 C          64.4204   88.6050   14.3623 C.3     1  UNL1        0.1123
      6 N          64.6885   89.9445   13.7429 N.pl3   1  UNL1       -0.3057
      7 C          64.1282   90.2711   12.3903 C.3     1  UNL1        0.0927
      8 C          64.3963   91.6107   11.7709 C.3     1  UNL1        0.0232
      9 C          63.2999   89.2580   11.6572 C.3     1  UNL1        0.1131
     10 C          65.5168   90.9576   14.4761 C.ar    1  UNL1        0.0503
     11 C          64.9266   91.7182   15.6263 C.ar    1  UNL1        0.0170
     12 C          65.7550   92.7313   16.3596 C.ar    1  UNL1        0.0332
     13 C          67.1736   92.9837   15.9425 C.ar    1  UNL1        0.1675
     14 F          68.0019   93.9968   16.6757 F       1  UNL1       -0.2018
     15 C          67.7638   92.2231   14.7922 C.ar    1  UNL1        0.1686
     16 F          69.1823   92.4755   14.3751 F       1  UNL1       -0.2018
     17 C          66.9354   91.2101   14.0590 C.ar    1  UNL1        0.0465
     18 C          62.7600   87.0058    9.2151 C.3     1  UNL1        0.0096
     19 C          61.6432   87.2319   10.1908 C.3     1  UNL1        0.0788
     20 C          60.2179   87.6799   10.0576 C.3     1  UNL1        0.0360
     21 C          59.8451   88.6963    9.0192 C.3     1  UNL1        0.1275
     22 N          59.5281   89.9190    8.2104 N.am    1  UNL1       -0.2839
     23 C          59.1435   89.4749    6.8302 C.2     1  UNL1        0.3068
     24 O          58.7488   90.3708    5.6937 O.2     1  UNL1       -0.2524
     25 N          59.2228   87.9777    6.7861 N.am    1  UNL1       -0.2384
     26 C          59.6565   87.4964    8.1390 C.2     1  UNL1        0.2451
     27 O          59.8649   86.0664    8.5411 O.2     1  UNL1       -0.2730
     28 H          59.5658   90.8496    8.5293 H       1  UNL1        0.1513
     29 H          59.0250   87.4104    6.0061 H       1  UNL1        0.1591
     30 C          60.1117   89.6836   10.1165 C.3     1  UNL1        0.0249
     31 C          60.9248   90.8110   10.6803 C.3     1  UNL1        0.0021
     32 C          59.7604   90.2664   11.4533 C.3     1  UNL1        0.0021
@<TRIPOS>BOND
     1    19    18    1
     2    19    20    1
     3    21    20    1
     4    21    30    1
     5    30    31    1
     6    31    32    1
     7    21    22    1
     8    22    23   am
     9    23    24    2
    10    23    25   am
    11    25    26   am
    12    26    27    2
    13    19     1    1
    14     1     2    2
    15     1     3   am
    16     3     4    1
    17     4     5    1
    18     5     6    1
    19     6    10    1
    20    10    11   ar
    21    11    12   ar
    22    12    13   ar
    23    13    14    1
    24    13    15   ar
    25    15    16    1
    26    15    17   ar
    27     6     7    1
    28     7     8    1
    29     7     9    1
    30    26    21    1
    31     9     3    1
    32    32    30    1
    33    17    10   ar
    34    22    28    1
    35    25    29    1
@<TRIPOS>MOLECULE
*****
 32 35 0 0 0
SMALL
GASTEIGER

@<TRIPOS>ATOM
      1 C          64.5569   89.9918   14.1616 C.2     1  UNL1        0.2253
      2 O          65.1476   90.4529   15.4610 O.2     1  UNL1       -0.2749
      3 N          64.1741   88.5528   13.9804 N.am    1  UNL1       -0.2761
      4 C          64.3819   87.5749   15.0986 C.3     1  UNL1        0.1148
      5 C          63.9990   86.1360   14.9174 C.3     1  UNL1        0.1123
      6 N          63.4084   85.6750   13.6179 N.pl3   1  UNL1       -0.3057
      7 C          63.2006   86.6529   12.4997 C.3     1  UNL1        0.0927
      8 C          62.6099   86.1919   11.2002 C.3     1  UNL1        0.0232
      9 C          63.5834   88.0918   12.6809 C.3     1  UNL1        0.1131
     10 C          63.0255   84.2360   13.4367 C.ar    1  UNL1        0.0503
     11 C          62.3832   83.4831   14.5639 C.ar    1  UNL1        0.0170
     12 C          62.0003   82.0441   14.3827 C.ar    1  UNL1        0.0332
     13 C          62.2598   81.3581   13.0743 C.ar    1  UNL1        0.1675
     14 F          61.8770   79.9191   12.8931 F       1  UNL1       -0.2018
     15 C          62.9022   82.1110   11.9471 C.ar    1  UNL1        0.1686
     16 F          63.1617   81.4249   10.6387 F       1  UNL1       -0.2018
     17 C          63.2850   83.5499   12.1283 C.ar    1  UNL1        0.0465
     18 C          62.8872   91.3054   13.0540 C.3     1  UNL1        0.0096
     19 C          64.3491   90.9697   13.0433 C.3     1  UNL1        0.0788
     20 C          65.5107   91.3991   12.1970 C.3     1  UNL1        0.0360
     21 C          65.8839   92.8498   12.1159 C.3     1  UNL1        0.1275
     22 N          66.4187   94.2394   12.2966 N.am    1  UNL1       -0.2839
     23 C          65.8980   95.0861   11.1732 C.2     1  UNL1        0.3068
     24 O          66.1838   96.5435   10.9619 O.2     1  UNL1       -0.2524
     25 N          65.0414   94.2198   10.2982 N.am    1  UNL1       -0.2384
     26 C          65.0327   92.8376   10.8809 C.2     1  UNL1        0.2451
     27 O          64.3012   91.6514   10.3259 O.2     1  UNL1       -0.2730
     28 H          67.0080   94.5426   13.0246 H       1  UNL1        0.1513
     29 H          64.5680   94.5078    9.4845 H       1  UNL1        0.1591
     30 C          66.6571   92.5587   13.3679 C.3     1  UNL1        0.0249
     31 C          66.9102   92.8062   14.8255 C.3     1  UNL1        0.0021
     32 C          67.7432   91.8070   14.0787 C.3     1  UNL1        0.0021
@<TRIPOS>BOND
     1    19    18    1
     2    19    20    1
     3    21    20    1
     4    21    30    1
     5    30    31    1
     6    31    32    1
     7    21    22    1
     8    22    23   am
     9    23    24    2
    10    23    25   am
    11    25    26   am
    12    26    27    2
    13    19     1    1
    14     1     2    2
    15     1     3   am
    16     3     4    1
    17     4     5    1
    18     5     6    1
    19     6    10    1
    20    10    11   ar
    21    11    12   ar
    22    12    13   ar
    23    13    14    1
    24    13    15   ar
    25    15    16    1
    26    15    17   ar
    27     6     7    1
    28     7     8    1
    29     7     9    1
    30    26    21    1
    31     9     3    1
    32    32    30    1
    33    17    10   ar
    34    22    28    1
    35    25    29    1
@<TRIPOS>MOLECULE
*****
 32 35 0 0 0
SMALL
GASTEIGER

@<TRIPOS>ATOM
      1 C          64.0520   89.5324   13.9398 C.2     1  UNL1        0.2253
      2 O          64.9398   89.9212   15.0847 O.2     1  UNL1       -0.2749
      3 N          63.8503   88.0840   13.6056 N.am    1  UNL1       -0.2761
      4 C          64.5363   87.0246   14.4161 C.3     1  UNL1        0.1148
      5 C          64.3346   85.5764   14.0818 C.3     1  UNL1        0.1123
      6 N          63.4468   85.1875   12.9370 N.pl3   1  UNL1       -0.3057
      7 C          62.7608   86.2469   12.1264 C.3     1  UNL1        0.0927
      8 C          61.8730   85.8580   10.9816 C.3     1  UNL1        0.0232
      9 C          62.9625   87.6951   12.4607 C.3     1  UNL1        0.1131
     10 C          63.2451   83.7391   12.6027 C.ar    1  UNL1        0.0503
     11 C          63.8667   83.1612   11.3659 C.ar    1  UNL1        0.0170
     12 C          63.6650   81.7129   11.0316 C.ar    1  UNL1        0.0332
     13 C          62.8416   80.8425   11.9342 C.ar    1  UNL1        0.1675
     14 F          62.6399   79.3942   11.6000 F       1  UNL1       -0.2018
     15 C          62.2200   81.4205   13.1710 C.ar    1  UNL1        0.1686
     16 F          61.3967   80.5501   14.0735 F       1  UNL1       -0.2018
     17 C          62.4218   82.8687   13.5052 C.ar    1  UNL1        0.0465
     18 C          62.0396   90.0145   12.7324 C.3     1  UNL1        0.0096
     19 C          63.3659   90.5917   13.1293 C.3     1  UNL1        0.0788
     20 C          64.0475   91.9046   12.8804 C.3     1  UNL1        0.0360
     21 C          65.1587   91.9943   11.8767 C.3     1  UNL1        0.1275
     22 N          66.0534   91.9772   10.6730 N.am    1  UNL1       -0.2839
     23 C          67.4094   92.4589   11.0965 C.2     1  UNL1        0.3068
     24 O          68.6112   92.6009   10.2101 O.2     1  UNL1       -0.2524
     25 N          67.3528   92.7737   12.5620 N.am    1  UNL1       -0.2384
     26 C          65.9616   92.4865   13.0442 C.2     1  UNL1        0.2451
     27 O          65.4614   92.6610   14.4475 O.2     1  UNL1       -0.2730
     28 H          65.7959   91.6988    9.7645 H       1  UNL1        0.1513
     29 H          68.0977   93.1097   13.1109 H       1  UNL1        0.1591
     30 C          64.1234   91.4833   10.9191 C.3     1  UNL1        0.0249
     31 C          63.4741   90.3407   10.1960 C.3     1  UNL1        0.0021
     32 C          62.9797   91.7408    9.9835 C.3     1  UNL1        0.0021
@<TRIPOS>BOND
     1    19    18    1
     2    19    20    1
     3    21    20    1
     4    21    30    1
     5    30    31    1
     6    31    32    1
     7    21    22    1
     8    22    23   am
     9    23    24    2
    10    23    25   am
    11    25    26   am
    12    26    27    2
    13    19     1    1
    14     1     2    2
    15     1     3   am
    16     3     4    1
    17     4     5    1
    18     5     6    1
    19     6    10    1
    20    10    11   ar
    21    11    12   ar
    22    12    13   ar
    23    13    14    1
    24    13    15   ar
    25    15    16    1
    26    15    17   ar
    27     6     7    1
    28     7     8    1
    29     7     9    1
    30    26    21    1
    31     9     3    1
    32    32    30    1
    33    17    10   ar
    34    22    28    1
    35    25    29    1
@<TRIPOS>MOLECULE
*****
 32 35 0 0 0
SMALL
GASTEIGER

@<TRIPOS>ATOM
      1 C          60.1519   94.9825    0.5717 C.2     1  UNL1        0.2253
      2 O          60.9290   96.1768    1.0404 O.2     1  UNL1       -0.2749
      3 N          58.8457   95.1703   -0.1415 N.am    1  UNL1       -0.2761
      4 C          58.3166   96.5524   -0.3861 C.3     1  UNL1        0.1148
      5 C          57.0105   96.7401   -1.0993 C.3     1  UNL1        0.1123
      6 N          56.2334   95.5457   -1.5679 N.pl3   1  UNL1       -0.3057
      7 C          56.7625   94.1636   -1.3234 C.3     1  UNL1        0.0927
      8 C          55.9854   92.9693   -1.7921 C.3     1  UNL1        0.0232
      9 C          58.0686   93.9759   -0.6102 C.3     1  UNL1        0.1131
     10 C          54.9272   95.7335   -2.2812 C.ar    1  UNL1        0.0503
     11 C          53.6451   95.7619   -1.5031 C.ar    1  UNL1        0.0170
     12 C          52.3389   95.9497   -2.2163 C.ar    1  UNL1        0.0332
     13 C          52.3149   96.1091   -3.7076 C.ar    1  UNL1        0.1675
     14 F          51.0087   96.2969   -4.4209 F       1  UNL1       -0.2018
     15 C          53.5970   96.0807   -4.4857 C.ar    1  UNL1        0.1686
     16 F          53.5730   96.2402   -5.9770 F       1  UNL1       -0.2018
     17 C          54.9031   95.8930   -3.7725 C.ar    1  UNL1        0.0465
     18 C          60.0552   93.1391    2.0990 C.3     1  UNL1        0.0096
     19 C          60.6810   93.6004    0.8162 C.3     1  UNL1        0.0788
     20 C          61.6407   92.9817   -0.1565 C.3     1  UNL1        0.0360
     21 C          62.8263   93.7630   -0.6402 C.3     1  UNL1        0.1275
     22 N          64.1206   94.4958   -0.8339 N.am    1  UNL1       -0.2839
     23 C          64.1522   95.0170   -2.2401 C.2     1  UNL1        0.3068
     24 O          65.2637   95.8098   -2.8617 O.2     1  UNL1       -0.2524
     25 N          62.8775   94.6063   -2.9155 N.am    1  UNL1       -0.2384
     26 C          62.0580   93.8312   -1.9267 C.2     1  UNL1        0.2451
     27 O          60.7073   93.2300   -2.1800 O.2     1  UNL1       -0.2730
     28 H          64.8256   94.6140   -0.1569 H       1  UNL1        0.1513
     29 H          62.6234   94.8097   -3.8447 H       1  UNL1        0.1591
     30 C          63.3467   93.5314    0.7474 C.3     1  UNL1        0.0249
     31 C          63.8723   94.0710    2.0446 C.3     1  UNL1        0.0021
     32 C          63.7227   92.5908    1.8536 C.3     1  UNL1        0.0021
@<TRIPOS>BOND
     1    19    18    1
     2    19    20    1
     3    21    20    1
     4    21    30    1
     5    30    31    1
     6    31    32    1
     7    21    22    1
     8    22    23   am
     9    23    24    2
    10    23    25   am
    11    25    26   am
    12    26    27    2
    13    19     1    1
    14     1     2    2
    15     1     3   am
    16     3     4    1
    17     4     5    1
    18     5     6    1
    19     6    10    1
    20    10    11   ar
    21    11    12   ar
    22    12    13   ar
    23    13    14    1
    24    13    15   ar
    25    15    16    1
    26    15    17   ar
    27     6     7    1
    28     7     8    1
    29     7     9    1
    30    26    21    1
    31     9     3    1
    32    32    30    1
    33    17    10   ar
    34    22    28    1
    35    25    29    1
@<TRIPOS>MOLECULE
*****
 32 35 0 0 0
SMALL
GASTEIGER

@<TRIPOS>ATOM
      1 C          64.5352   89.3651   14.1737 C.2     1  UNL1        0.2253
      2 O          65.4249   89.7235   15.3270 O.2     1  UNL1       -0.2749
      3 N          64.2187   87.9266   13.8895 N.am    1  UNL1       -0.2761
      4 C          64.7918   86.8467   14.7584 C.3     1  UNL1        0.1148
      5 C          64.4753   85.4083   14.4742 C.3     1  UNL1        0.1123
      6 N          63.5856   85.0499   13.3209 N.pl3   1  UNL1       -0.3057
      7 C          63.0124   86.1299   12.4519 C.3     1  UNL1        0.0927
      8 C          62.1228   85.7715   11.2987 C.3     1  UNL1        0.0232
      9 C          63.3290   87.5682   12.7362 C.3     1  UNL1        0.1131
     10 C          63.2690   83.6115   13.0367 C.ar    1  UNL1        0.0503
     11 C          63.9701   82.8957   11.9204 C.ar    1  UNL1        0.0170
     12 C          63.6536   81.4572   11.6362 C.ar    1  UNL1        0.0332
     13 C          62.6359   80.7346   12.4682 C.ar    1  UNL1        0.1675
     14 F          62.3194   79.2963   12.1840 F       1  UNL1       -0.2018
     15 C          61.9349   81.4505   13.5845 C.ar    1  UNL1        0.1686
     16 F          60.9173   80.7279   14.4166 F       1  UNL1       -0.2018
     17 C          62.2514   82.8889   13.8687 C.ar    1  UNL1        0.0465
     18 C          63.3119   89.7441   12.1489 C.3     1  UNL1        0.0096
     19 C          63.9621   90.4451   13.3047 C.3     1  UNL1        0.0788
     20 C          64.1190   91.8847   13.6957 C.3     1  UNL1        0.0360
     21 C          65.4751   92.4243   14.0420 C.3     1  UNL1        0.1275
     22 N          66.8747   92.9624   14.0777 N.am    1  UNL1       -0.2839
     23 C          67.2477   93.1890   15.5128 C.2     1  UNL1        0.3068
     24 O          68.5596   93.7204   16.0095 O.2     1  UNL1       -0.2524
     25 N          66.0787   92.7909   16.3641 N.am    1  UNL1       -0.2384
     26 C          64.9831   92.3182   15.4550 C.2     1  UNL1        0.2451
     27 O          63.6325   91.8260   15.8837 O.2     1  UNL1       -0.2730
     28 H          67.4479   93.1364   13.2964 H       1  UNL1        0.1513
     29 H          66.0376   92.8325   17.3469 H       1  UNL1        0.1591
     30 C          65.6837   92.4175   12.5566 C.3     1  UNL1        0.0249
     31 C          66.5503   92.1247   11.3678 C.3     1  UNL1        0.0021
     32 C          65.1783   92.6986   11.1726 C.3     1  UNL1        0.0021
@<TRIPOS>BOND
     1    19    18    1
     2    19    20    1
     3    21    20    1
     4    21    30    1
     5    30    31    1
     6    31    32    1
     7    21    22    1
     8    22    23   am
     9    23    24    2
    10    23    25   am
    11    25    26   am
    12    26    27    2
    13    19     1    1
    14     1     2    2
    15     1     3   am
    16     3     4    1
    17     4     5    1
    18     5     6    1
    19     6    10    1
    20    10    11   ar
    21    11    12   ar
    22    12    13   ar
    23    13    14    1
    24    13    15   ar
    25    15    16    1
    26    15    17   ar
    27     6     7    1
    28     7     8    1
    29     7     9    1
    30    26    21    1
    31     9     3    1
    32    32    30    1
    33    17    10   ar
    34    22    28    1
    35    25    29    1
@<TRIPOS>MOLECULE
*****
 32 35 0 0 0
SMALL
GASTEIGER

@<TRIPOS>ATOM
      1 C          64.6395   89.5755   14.3084 C.2     1  UNL1        0.2253
      2 O          65.1194   88.7082   15.4342 O.2     1  UNL1       -0.2749
      3 N          63.8488   88.9754   13.1839 N.am    1  UNL1       -0.2761
      4 C          63.5380   87.5079   13.1851 C.3     1  UNL1        0.1148
      5 C          62.7474   86.9078   12.0605 C.3     1  UNL1        0.1123
      6 N          62.2674   87.7752   10.9347 N.pl3   1  UNL1       -0.3057
      7 C          62.5781   89.2426   10.9335 C.3     1  UNL1        0.0927
      8 C          62.0982   90.1099    9.8077 C.3     1  UNL1        0.0232
      9 C          63.3688   89.8427   12.0581 C.3     1  UNL1        0.1131
     10 C          61.4767   87.1750    9.8101 C.ar    1  UNL1        0.0503
     11 C          60.0216   87.5051    9.6567 C.ar    1  UNL1        0.0170
     12 C          59.2309   86.9049    8.5321 C.ar    1  UNL1        0.0332
     13 C          59.8954   85.9746    7.5610 C.ar    1  UNL1        0.1675
     14 F          59.1048   85.3744    6.4365 F       1  UNL1       -0.2018
     15 C          61.3506   85.6445    7.7145 C.ar    1  UNL1        0.1686
     16 F          62.0151   84.7142    6.7434 F       1  UNL1       -0.2018
     17 C          62.1412   86.2447    8.8391 C.ar    1  UNL1        0.0465
     18 C          63.9840   91.6709   15.2676 C.3     1  UNL1        0.0096
     19 C          64.9502   91.0430   14.3072 C.3     1  UNL1        0.0788
     20 C          66.0531   91.5754   13.4411 C.3     1  UNL1        0.0360
     21 C          66.3309   93.0490   13.4018 C.3     1  UNL1        0.1275
     22 N          66.7521   94.4693   13.6362 N.am    1  UNL1       -0.2839
     23 C          66.2684   95.2931   12.4797 C.2     1  UNL1        0.3068
     24 O          66.4696   96.7691   12.3034 O.2     1  UNL1       -0.2524
     25 N          65.5483   94.3819   11.5305 N.am    1  UNL1       -0.2384
     26 C          65.5869   92.9948   12.1004 C.2     1  UNL1        0.2451
     27 O          64.9869   91.7689   11.4782 O.2     1  UNL1       -0.2730
     28 H          67.2572   94.8024   14.4128 H       1  UNL1        0.1513
     29 H          65.1247   94.6474   10.6824 H       1  UNL1        0.1591
     30 C          67.0168   92.7950   14.7114 C.3     1  UNL1        0.0249
     31 C          68.1192   92.1483   15.4965 C.3     1  UNL1        0.0021
     32 C          67.1024   93.0019   16.1946 C.3     1  UNL1        0.0021
@<TRIPOS>BOND
     1    19    18    1
     2    19    20    1
     3    21    20    1
     4    21    30    1
     5    30    31    1
     6    31    32    1
     7    21    22    1
     8    22    23   am
     9    23    24    2
    10    23    25   am
    11    25    26   am
    12    26    27    2
    13    19     1    1
    14     1     2    2
    15     1     3   am
    16     3     4    1
    17     4     5    1
    18     5     6    1
    19     6    10    1
    20    10    11   ar
    21    11    12   ar
    22    12    13   ar
    23    13    14    1
    24    13    15   ar
    25    15    16    1
    26    15    17   ar
    27     6     7    1
    28     7     8    1
    29     7     9    1
    30    26    21    1
    31     9     3    1
    32    32    30    1
    33    17    10   ar
    34    22    28    1
    35    25    29    1
@<TRIPOS>MOLECULE
*****
 32 35 0 0 0
SMALL
GASTEIGER

@<TRIPOS>ATOM
      1 C          59.9173   92.7119    0.0241 C.2     1  UNL1        0.2253
      2 O          60.1593   91.2326   -0.0314 O.2     1  UNL1       -0.2749
      3 N          58.7276   93.3038   -0.6719 N.am    1  UNL1       -0.2761
      4 C          57.7800   92.4165   -1.4233 C.3     1  UNL1        0.1148
      5 C          56.5904   93.0085   -2.1192 C.3     1  UNL1        0.1123
      6 N          56.3484   94.4878   -2.0638 N.pl3   1  UNL1       -0.3057
      7 C          57.2960   95.3751   -1.3124 C.3     1  UNL1        0.0927
      8 C          57.0540   96.8544   -1.2569 C.3     1  UNL1        0.0232
      9 C          58.4856   94.7831   -0.6164 C.3     1  UNL1        0.1131
     10 C          55.1587   95.0797   -2.7598 C.ar    1  UNL1        0.0503
     11 C          55.2258   95.3920   -4.2253 C.ar    1  UNL1        0.0170
     12 C          54.0361   95.9839   -4.9213 C.ar    1  UNL1        0.0332
     13 C          52.7794   96.2636   -4.1517 C.ar    1  UNL1        0.1675
     14 F          51.5898   96.8556   -4.8476 F       1  UNL1       -0.2018
     15 C          52.7124   95.9514   -2.6860 C.ar    1  UNL1        0.1686
     16 F          51.4556   96.2311   -1.9163 F       1  UNL1       -0.2018
     17 C          53.9020   95.3594   -1.9901 C.ar    1  UNL1        0.0465
     18 C          60.0270   94.3580    1.7615 C.3     1  UNL1        0.0096
     19 C          60.8649   93.5992    0.7755 C.3     1  UNL1        0.0788
     20 C          62.3289   93.5797    0.4495 C.3     1  UNL1        0.0360
     21 C          63.3134   94.2222    1.3812 C.3     1  UNL1        0.1275
     22 N          64.2741   94.5951    2.4710 N.am    1  UNL1       -0.2839
     23 C          64.7753   95.9813    2.1930 C.2     1  UNL1        0.3068
     24 O          65.7554   96.7489    3.0298 O.2     1  UNL1       -0.2524
     25 N          64.1243   96.4652    0.9313 N.am    1  UNL1       -0.2384
     26 C          63.2207   95.3779    0.4295 C.2     1  UNL1        0.2451
     27 O          62.3733   95.4363   -0.8068 O.2     1  UNL1       -0.2730
     28 H          64.5307   94.0293    3.2348 H       1  UNL1        0.1513
     29 H          64.2652   97.3423    0.5069 H       1  UNL1        0.1591
     30 C          63.2002   92.9322    2.1381 C.3     1  UNL1        0.0249
     31 C          62.4097   92.0034    3.0113 C.3     1  UNL1        0.0021
     32 C          63.7947   91.6265    2.5759 C.3     1  UNL1        0.0021
@<TRIPOS>BOND
     1    19    18    1
     2    19    20    1
     3    21    20    1
     4    21    30    1
     5    30    31    1
     6    31    32    1
     7    21    22    1
     8    22    23   am
     9    23    24    2
    10    23    25   am
    11    25    26   am
    12    26    27    2
    13    19     1    1
    14     1     2    2
    15     1     3   am
    16     3     4    1
    17     4     5    1
    18     5     6    1
    19     6    10    1
    20    10    11   ar
    21    11    12   ar
    22    12    13   ar
    23    13    14    1
    24    13    15   ar
    25    15    16    1
    26    15    17   ar
    27     6     7    1
    28     7     8    1
    29     7     9    1
    30    26    21    1
    31     9     3    1
    32    32    30    1
    33    17    10   ar
    34    22    28    1
    35    25    29    1
