@<TRIPOS>MOLECULE
*****
 24 27 0 0 0
SMALL
GASTEIGER

@<TRIPOS>ATOM
      1 O          67.0641   93.2752   16.4568 O.2     1  UNL1       -0.2422
      2 C          66.4036   92.7610   15.2121 C.2     1  UNL1        0.3644
      3 C          66.8777   93.2226   13.8660 C.3     1  UNL1        0.2333
      4 C          66.2172   92.7084   12.6213 C.2     1  UNL1        0.3159
      5 N          65.0827   91.7325   12.7227 N.2     1  UNL1       -0.0037
      6 C          64.6085   91.2708   14.0688 C.2     1  UNL1        0.3614
      7 N          65.2690   91.7850   15.3136 N.am    1  UNL1        0.0290
      8 N          66.6914   93.1701   11.2751 N.pl3   1  UNL1       -0.1888
      9 C          67.6550   92.3298   10.4906 C.3     1  UNL1        0.2343
     10 C          68.1291   92.7915    9.1445 C.3     1  UNL1        0.1929
     11 O          67.6397   94.0933    8.5829 O.3     1  UNL1       -0.3449
     12 C          66.6761   94.9336    9.3674 C.3     1  UNL1        0.1929
     13 C          66.2019   94.4720   10.7135 C.3     1  UNL1        0.2343
     14 C          63.4739   90.2949   14.1702 C.3     1  UNL1        0.2447
     15 C          62.8471   89.7415   12.9249 C.2     1  UNL1        0.3637
     16 N          61.8602   90.4497   12.0449 N.2     1  UNL1       -0.0344
     17 C          61.5002   89.5286   10.9171 C.2     1  UNL1        0.2326
     18 C          60.5752   89.6882    9.7472 C.2     1  UNL1        0.0612
     19 C          60.4145   88.5701    8.7602 C.2     1  UNL1        0.0577
     20 CL         59.4894   88.7296    7.5902 Cl      1  UNL1       -0.0824
     21 C          61.1790   87.2925    8.9432 C.2     1  UNL1       -0.0058
     22 C          62.1040   87.1330   10.1131 C.3     1  UNL1        0.1046
     23 C          62.2647   88.2510   11.1000 C.2     1  UNL1        0.2175
     24 N          63.0970   88.3826   12.3410 N.2     1  UNL1       -0.0383
@<TRIPOS>BOND
     1     1     2    2
     2     2     3    1
     3     3     4    1
     4     4     8    1
     5     8     9    1
     6     9    10    1
     7    10    11    1
     8    11    12    1
     9    12    13    1
    10     4     5    2
    11     5     6    1
    12     6    14    1
    13    14    15    1
    14    15    16    2
    15    16    17    1
    16    17    18    2
    17    18    19    1
    18    19    20    1
    19    19    21    2
    20    21    22    1
    21    22    23    1
    22    23    24    2
    23     6     7    2
    24     7     2    1
    25    13     8    1
    26    24    15    1
    27    23    17    1
@<TRIPOS>MOLECULE
*****
 24 27 0 0 0
SMALL
GASTEIGER

@<TRIPOS>ATOM
      1 O          62.4887   85.2752    7.6949 O.2     1  UNL1       -0.2422
      2 C          62.4609   85.7438    9.1196 C.2     1  UNL1        0.3644
      3 C          62.7402   84.7776   10.2324 C.3     1  UNL1        0.2333
      4 C          62.7124   85.2462   11.6571 C.2     1  UNL1        0.3159
      5 N          62.4053   86.6809   11.9689 N.2     1  UNL1       -0.0037
      6 C          62.1260   87.6471   10.8560 C.2     1  UNL1        0.3614
      7 N          62.1538   87.1786    9.4314 N.am    1  UNL1        0.0290
      8 N          62.9918   84.2799   12.7700 N.pl3   1  UNL1       -0.1888
      9 C          62.6959   82.8207   12.5882 C.3     1  UNL1        0.2343
     10 C          62.9752   81.8544   13.7009 C.3     1  UNL1        0.1929
     11 O          63.5503   82.3475   14.9955 O.3     1  UNL1       -0.3449
     12 C          63.8462   83.8067   15.1774 C.3     1  UNL1        0.1929
     13 C          63.5669   84.7729   14.0646 C.3     1  UNL1        0.2343
     14 C          61.8189   89.0818   11.1679 C.3     1  UNL1        0.2447
     15 C          62.8246   89.9228   11.8968 C.2     1  UNL1        0.3637
     16 N          63.1932   89.7989   13.3456 N.2     1  UNL1       -0.0344
     17 C          64.2346   90.8348   13.6492 C.2     1  UNL1        0.2326
     18 C          64.9680   91.1810   14.9111 C.2     1  UNL1        0.0612
     19 C          65.9765   92.2913   14.9118 C.2     1  UNL1        0.0577
     20 CL         66.7099   92.6375   16.1737 Cl      1  UNL1       -0.0824
     21 C          66.2516   93.0555   13.6507 C.2     1  UNL1       -0.0058
     22 C          65.5182   92.7093   12.3889 C.3     1  UNL1        0.1046
     23 C          64.5098   91.5990   12.3881 C.2     1  UNL1        0.2175
     24 N          63.6383   91.0353   11.3051 N.2     1  UNL1       -0.0383
@<TRIPOS>BOND
     1     1     2    2
     2     2     3    1
     3     3     4    1
     4     4     8    1
     5     8     9    1
     6     9    10    1
     7    10    11    1
     8    11    12    1
     9    12    13    1
    10     4     5    2
    11     5     6    1
    12     6    14    1
    13    14    15    1
    14    15    16    2
    15    16    17    1
    16    17    18    2
    17    18    19    1
    18    19    20    1
    19    19    21    2
    20    21    22    1
    21    22    23    1
    22    23    24    2
    23     6     7    2
    24     7     2    1
    25    13     8    1
    26    24    15    1
    27    23    17    1
@<TRIPOS>MOLECULE
*****
 24 27 0 0 0
SMALL
GASTEIGER

@<TRIPOS>ATOM
      1 O          64.7225   91.9769   14.0525 O.2     1  UNL1       -0.2422
      2 C          64.2670   90.5981   13.6767 C.2     1  UNL1        0.3644
      3 C          63.3795   90.4005   12.4837 C.3     1  UNL1        0.2333
      4 C          62.9240   89.0217   12.1079 C.2     1  UNL1        0.3159
      5 N          63.3559   87.8403   12.9250 N.2     1  UNL1       -0.0037
      6 C          64.2435   88.0378   14.1181 C.2     1  UNL1        0.3614
      7 N          64.6990   89.4167   14.4939 N.am    1  UNL1        0.0290
      8 N          62.0364   88.8242   10.9148 N.pl3   1  UNL1       -0.1888
      9 C          61.1213   89.9264   10.4701 C.3     1  UNL1        0.2343
     10 C          60.2338   89.7289    9.2771 C.3     1  UNL1        0.1929
     11 O          60.2614   88.4293    8.5288 O.3     1  UNL1       -0.3449
     12 C          61.1765   87.3271    8.9734 C.3     1  UNL1        0.1929
     13 C          62.0640   87.5245   10.1664 C.3     1  UNL1        0.2343
     14 C          64.6755   86.8565   14.9353 C.3     1  UNL1        0.2447
     15 C          64.1610   85.4870   14.6041 C.2     1  UNL1        0.3637
     16 N          62.8434   84.9125   15.0330 N.2     1  UNL1       -0.0344
     17 C          62.7419   83.5220   14.4798 C.2     1  UNL1        0.2326
     18 C          61.6689   82.4784   14.5784 C.2     1  UNL1        0.0612
     19 C          61.8508   81.1499   13.9062 C.2     1  UNL1        0.0577
     20 CL         60.7778   80.1063   14.0048 Cl      1  UNL1       -0.0824
     21 C          63.1057   80.8649   13.1355 C.2     1  UNL1       -0.0058
     22 C          64.1786   81.9084   13.0369 C.3     1  UNL1        0.1046
     23 C          63.9967   83.2369   13.7091 C.2     1  UNL1        0.2175
     24 N          64.8738   84.4514   13.7859 N.2     1  UNL1       -0.0383
@<TRIPOS>BOND
     1     1     2    2
     2     2     3    1
     3     3     4    1
     4     4     8    1
     5     8     9    1
     6     9    10    1
     7    10    11    1
     8    11    12    1
     9    12    13    1
    10     4     5    2
    11     5     6    1
    12     6    14    1
    13    14    15    1
    14    15    16    2
    15    16    17    1
    16    17    18    2
    17    18    19    1
    18    19    20    1
    19    19    21    2
    20    21    22    1
    21    22    23    1
    22    23    24    2
    23     6     7    2
    24     7     2    1
    25    13     8    1
    26    24    15    1
    27    23    17    1
@<TRIPOS>MOLECULE
*****
 24 27 0 0 0
SMALL
GASTEIGER

@<TRIPOS>ATOM
      1 O          59.1731   87.0987    7.7783 O.2     1  UNL1       -0.2422
      2 C          60.0798   87.1720    8.9710 C.2     1  UNL1        0.3644
      3 C          60.9494   86.0023    9.3251 C.3     1  UNL1        0.2333
      4 C          61.8561   86.0756   10.5177 C.2     1  UNL1        0.3159
      5 N          61.8932   87.3186   11.3564 N.2     1  UNL1       -0.0037
      6 C          61.0236   88.4885   11.0024 C.2     1  UNL1        0.3614
      7 N          60.1169   88.4152    9.8097 N.am    1  UNL1        0.0290
      8 N          62.7258   84.9057   10.8717 N.pl3   1  UNL1       -0.1888
      9 C          62.9243   84.5267   12.3094 C.3     1  UNL1        0.2343
     10 C          63.7939   83.3569   12.6635 C.3     1  UNL1        0.1929
     11 O          64.4650   82.5662   11.5798 O.3     1  UNL1       -0.3449
     12 C          64.2665   82.9452   10.1421 C.3     1  UNL1        0.1929
     13 C          63.3969   84.1150    9.7881 C.3     1  UNL1        0.2343
     14 C          61.0607   89.7315   11.8410 C.3     1  UNL1        0.2447
     15 C          62.3773   90.3059   12.2730 C.2     1  UNL1        0.3637
     16 N          63.0670   90.0452   13.5793 N.2     1  UNL1       -0.0344
     17 C          64.3514   90.8199   13.5881 C.2     1  UNL1        0.2326
     18 C          65.4395   90.9475   14.6126 C.2     1  UNL1        0.0612
     19 C          66.6319   91.8146   14.3363 C.2     1  UNL1        0.0577
     20 CL         67.7201   91.9422   15.3608 Cl      1  UNL1       -0.0824
     21 C          66.7361   92.5541   13.0354 C.2     1  UNL1       -0.0058
     22 C          65.6479   92.4265   12.0109 C.3     1  UNL1        0.1046
     23 C          64.4556   91.5594   12.2873 C.2     1  UNL1        0.2175
     24 N          63.2356   91.2417   11.4745 N.2     1  UNL1       -0.0383
@<TRIPOS>BOND
     1     1     2    2
     2     2     3    1
     3     3     4    1
     4     4     8    1
     5     8     9    1
     6     9    10    1
     7    10    11    1
     8    11    12    1
     9    12    13    1
    10     4     5    2
    11     5     6    1
    12     6    14    1
    13    14    15    1
    14    15    16    2
    15    16    17    1
    16    17    18    2
    17    18    19    1
    18    19    20    1
    19    19    21    2
    20    21    22    1
    21    22    23    1
    22    23    24    2
    23     6     7    2
    24     7     2    1
    25    13     8    1
    26    24    15    1
    27    23    17    1
@<TRIPOS>MOLECULE
*****
 24 27 0 0 0
SMALL
GASTEIGER

@<TRIPOS>ATOM
      1 O          63.7408   91.7483   12.7543 O.2     1  UNL1       -0.2422
      2 C          63.3850   90.3163   12.4850 C.2     1  UNL1        0.3644
      3 C          62.4989   89.9689   11.3257 C.3     1  UNL1        0.2333
      4 C          62.1430   88.5368   11.0564 C.2     1  UNL1        0.3159
      5 N          62.6732   87.4521   11.9465 N.2     1  UNL1       -0.0037
      6 C          63.5593   87.7995   13.1059 C.2     1  UNL1        0.3614
      7 N          63.9152   89.2315   13.3752 N.am    1  UNL1        0.0290
      8 N          61.2569   88.1895    9.8970 N.pl3   1  UNL1       -0.1888
      9 C          61.0129   86.7522    9.5437 C.3     1  UNL1        0.2343
     10 C          60.1268   86.4049    8.3844 C.3     1  UNL1        0.1929
     11 O          59.4848   87.4947    7.5782 O.3     1  UNL1       -0.3449
     12 C          59.7288   88.9320    7.9314 C.3     1  UNL1        0.1929
     13 C          60.6149   89.2794    9.0908 C.3     1  UNL1        0.2343
     14 C          64.0895   86.7148   13.9960 C.3     1  UNL1        0.2447
     15 C          63.6611   85.2932   13.7827 C.2     1  UNL1        0.3637
     16 N          64.0653   84.4128   12.6374 N.2     1  UNL1       -0.0344
     17 C          63.4073   83.0779   12.8241 C.2     1  UNL1        0.2326
     18 C          63.4418   81.8192   12.0090 C.2     1  UNL1        0.0612
     19 C          62.6652   80.6157   12.4546 C.2     1  UNL1        0.0577
     20 CL         62.6997   79.3568   11.6396 Cl      1  UNL1       -0.0824
     21 C          61.8542   80.6709   13.7153 C.2     1  UNL1       -0.0058
     22 C          61.8197   81.9297   14.5303 C.3     1  UNL1        0.1046
     23 C          62.5963   83.1331   14.0847 C.2     1  UNL1        0.2175
     24 N          62.7532   84.5023   14.6771 N.2     1  UNL1       -0.0383
@<TRIPOS>BOND
     1     1     2    2
     2     2     3    1
     3     3     4    1
     4     4     8    1
     5     8     9    1
     6     9    10    1
     7    10    11    1
     8    11    12    1
     9    12    13    1
    10     4     5    2
    11     5     6    1
    12     6    14    1
    13    14    15    1
    14    15    16    2
    15    16    17    1
    16    17    18    2
    17    18    19    1
    18    19    20    1
    19    19    21    2
    20    21    22    1
    21    22    23    1
    22    23    24    2
    23     6     7    2
    24     7     2    1
    25    13     8    1
    26    24    15    1
    27    23    17    1
@<TRIPOS>MOLECULE
*****
 24 27 0 0 0
SMALL
GASTEIGER

@<TRIPOS>ATOM
      1 O          61.9106   88.7955   10.8240 O.2     1  UNL1       -0.2422
      2 C          62.8620   88.8699   11.9813 C.2     1  UNL1        0.3644
      3 C          63.5925   90.1476   12.2707 C.3     1  UNL1        0.2333
      4 C          64.5438   90.2220   13.4280 C.2     1  UNL1        0.3159
      5 N          64.7647   89.0187   14.2959 N.2     1  UNL1       -0.0037
      6 C          64.0342   87.7409   14.0064 C.2     1  UNL1        0.3614
      7 N          63.0828   87.6665   12.8491 N.am    1  UNL1        0.0290
      8 N          65.2744   91.4998   13.7174 N.pl3   1  UNL1       -0.1888
      9 C          65.7527   91.7916   15.1089 C.3     1  UNL1        0.2343
     10 C          66.4832   93.0693   15.3983 C.3     1  UNL1        0.1929
     11 O          66.7354   94.0551   14.2963 O.3     1  UNL1       -0.3449
     12 C          66.2571   93.7633   12.9049 C.3     1  UNL1        0.1929
     13 C          65.5266   92.4856   12.6155 C.3     1  UNL1        0.2343
     14 C          64.2550   86.5376   14.8743 C.3     1  UNL1        0.2447
     15 C          63.8034   85.1847   14.4098 C.2     1  UNL1        0.3637
     16 N          64.2838   84.4680   13.1828 N.2     1  UNL1       -0.0344
     17 C          63.5693   83.1514   13.1054 C.2     1  UNL1        0.2326
     18 C          63.6392   82.0284   12.1135 C.2     1  UNL1        0.0612
     19 C          62.7870   80.8083   12.3008 C.2     1  UNL1        0.0577
     20 CL         62.8568   79.6851   11.3089 Cl      1  UNL1       -0.0824
     21 C          61.8650   80.7112   13.4800 C.2     1  UNL1       -0.0058
     22 C          61.7951   81.8343   14.4719 C.3     1  UNL1        0.1046
     23 C          62.6473   83.0544   14.2845 C.2     1  UNL1        0.2175
     24 N          62.7919   84.3110   15.0907 N.2     1  UNL1       -0.0383
@<TRIPOS>BOND
     1     1     2    2
     2     2     3    1
     3     3     4    1
     4     4     8    1
     5     8     9    1
     6     9    10    1
     7    10    11    1
     8    11    12    1
     9    12    13    1
    10     4     5    2
    11     5     6    1
    12     6    14    1
    13    14    15    1
    14    15    16    2
    15    16    17    1
    16    17    18    2
    17    18    19    1
    18    19    20    1
    19    19    21    2
    20    21    22    1
    21    22    23    1
    22    23    24    2
    23     6     7    2
    24     7     2    1
    25    13     8    1
    26    24    15    1
    27    23    17    1
@<TRIPOS>MOLECULE
*****
 24 27 0 0 0
SMALL
GASTEIGER

@<TRIPOS>ATOM
      1 O          64.3768   91.5749   15.8815 O.2     1  UNL1       -0.2422
      2 C          64.3595   91.4463   14.3871 C.2     1  UNL1        0.3644
      3 C          65.2480   92.3170   13.5490 C.3     1  UNL1        0.2333
      4 C          65.2308   92.1883   12.0547 C.2     1  UNL1        0.3159
      5 N          64.3250   91.1889   11.3983 N.2     1  UNL1       -0.0037
      6 C          63.4365   90.3181   12.2364 C.2     1  UNL1        0.3614
      7 N          63.4537   90.4468   13.7308 N.am    1  UNL1        0.0290
      8 N          66.1193   93.0591   11.2166 N.pl3   1  UNL1       -0.1888
      9 C          67.1365   92.4372   10.3064 C.3     1  UNL1        0.2343
     10 C          68.0250   93.3079    9.4684 C.3     1  UNL1        0.1929
     11 O          67.8963   94.8006    9.5406 O.3     1  UNL1       -0.3449
     12 C          66.8792   95.4226   10.4508 C.3     1  UNL1        0.1929
     13 C          65.9906   94.5518   11.2888 C.3     1  UNL1        0.2343
     14 C          62.5308   89.3187   11.5801 C.3     1  UNL1        0.2447
     15 C          62.7289   87.8523   11.8255 C.2     1  UNL1        0.3637
     16 N          62.2532   86.7381   10.9411 N.2     1  UNL1       -0.0344
     17 C          62.6678   85.4397   11.5674 C.2     1  UNL1        0.2326
     18 C          62.4734   84.0139   11.1442 C.2     1  UNL1        0.0612
     19 C          63.0110   82.8998   11.9925 C.2     1  UNL1        0.0577
     20 CL         62.8166   81.4739   11.5693 Cl      1  UNL1       -0.0824
     21 C          63.7431   83.2116   13.2641 C.2     1  UNL1       -0.0058
     22 C          63.9375   84.6374   13.6874 C.3     1  UNL1        0.1046
     23 C          63.3999   85.7515   12.8390 C.2     1  UNL1        0.2175
     24 N          63.4376   87.2425   12.9985 N.2     1  UNL1       -0.0383
@<TRIPOS>BOND
     1     1     2    2
     2     2     3    1
     3     3     4    1
     4     4     8    1
     5     8     9    1
     6     9    10    1
     7    10    11    1
     8    11    12    1
     9    12    13    1
    10     4     5    2
    11     5     6    1
    12     6    14    1
    13    14    15    1
    14    15    16    2
    15    16    17    1
    16    17    18    2
    17    18    19    1
    18    19    20    1
    19    19    21    2
    20    21    22    1
    21    22    23    1
    22    23    24    2
    23     6     7    2
    24     7     2    1
    25    13     8    1
    26    24    15    1
    27    23    17    1
@<TRIPOS>MOLECULE
*****
 24 27 0 0 0
SMALL
GASTEIGER

@<TRIPOS>ATOM
      1 O          66.4748   92.2744   13.7801 O.2     1  UNL1       -0.2422
      2 C          65.2895   91.3657   13.6411 C.2     1  UNL1        0.3644
      3 C          65.1092   90.2177   14.5895 C.3     1  UNL1        0.2333
      4 C          63.9239   89.3091   14.4505 C.2     1  UNL1        0.3159
      5 N          62.9188   89.5484   13.3631 N.2     1  UNL1       -0.0037
      6 C          63.0991   90.6964   12.4146 C.2     1  UNL1        0.3614
      7 N          64.2844   91.6051   12.5536 N.am    1  UNL1        0.0290
      8 N          63.7436   88.1610   15.3990 N.pl3   1  UNL1       -0.1888
      9 C          64.2371   86.7947   15.0252 C.3     1  UNL1        0.2343
     10 C          64.0569   85.6467   15.9736 C.3     1  UNL1        0.1929
     11 O          63.3832   85.8650   17.2958 O.3     1  UNL1       -0.3449
     12 C          62.8897   87.2313   17.6697 C.3     1  UNL1        0.1929
     13 C          63.0699   88.3793   16.7213 C.3     1  UNL1        0.2343
     14 C          62.0941   90.9358   11.3271 C.3     1  UNL1        0.2447
     15 C          61.6507   89.8006   10.4525 C.2     1  UNL1        0.3637
     16 N          62.4742   88.6053   10.0743 N.2     1  UNL1       -0.0344
     17 C          61.6384   87.7274    9.1906 C.2     1  UNL1        0.2326
     18 C          61.9245   86.4180    8.5172 C.2     1  UNL1        0.0612
     19 C          60.8705   85.7614    7.6758 C.2     1  UNL1        0.0577
     20 CL         61.1566   84.4519    7.0023 Cl      1  UNL1       -0.0824
     21 C          59.5305   86.4142    7.5079 C.2     1  UNL1       -0.0058
     22 C          59.2444   87.7236    8.1813 C.3     1  UNL1        0.1046
     23 C          60.2984   88.3802    9.0227 C.2     1  UNL1        0.2175
     24 N          60.3060   89.6615    9.8026 N.2     1  UNL1       -0.0383
@<TRIPOS>BOND
     1     1     2    2
     2     2     3    1
     3     3     4    1
     4     4     8    1
     5     8     9    1
     6     9    10    1
     7    10    11    1
     8    11    12    1
     9    12    13    1
    10     4     5    2
    11     5     6    1
    12     6    14    1
    13    14    15    1
    14    15    16    2
    15    16    17    1
    16    17    18    2
    17    18    19    1
    18    19    20    1
    19    19    21    2
    20    21    22    1
    21    22    23    1
    22    23    24    2
    23     6     7    2
    24     7     2    1
    25    13     8    1
    26    24    15    1
    27    23    17    1
@<TRIPOS>MOLECULE
*****
 24 27 0 0 0
SMALL
GASTEIGER

@<TRIPOS>ATOM
      1 O          63.6606   85.9679   13.7587 O.2     1  UNL1       -0.2422
      2 C          63.1649   86.8969   12.6904 C.2     1  UNL1        0.3644
      3 C          62.4555   86.3473   11.4885 C.3     1  UNL1        0.2333
      4 C          61.9598   87.2764   10.4203 C.2     1  UNL1        0.3159
      5 N          62.1735   88.7550   10.5539 N.2     1  UNL1       -0.0037
      6 C          62.8830   89.3047   11.7559 C.2     1  UNL1        0.3614
      7 N          63.3787   88.3756   12.8241 N.am    1  UNL1        0.0290
      8 N          61.2503   86.7267    9.2184 N.pl3   1  UNL1       -0.1888
      9 C          61.9531   85.7639    8.3078 C.3     1  UNL1        0.2343
     10 C          61.2437   85.2143    7.1059 C.3     1  UNL1        0.1929
     11 O          59.8315   85.6274    6.8146 O.3     1  UNL1       -0.3449
     12 C          59.1287   86.5902    7.7251 C.3     1  UNL1        0.1929
     13 C          59.8381   87.1399    8.9270 C.3     1  UNL1        0.2343
     14 C          63.0968   90.7833   11.8895 C.3     1  UNL1        0.2447
     15 C          64.1454   91.3080   12.8250 C.2     1  UNL1        0.3637
     16 N          65.5049   91.8075   12.4346 N.2     1  UNL1       -0.0344
     17 C          66.2184   92.2336   13.6834 C.2     1  UNL1        0.2326
     18 C          67.5857   92.8061   13.9124 C.2     1  UNL1        0.0612
     19 C          68.0346   93.1423   15.3036 C.2     1  UNL1        0.0577
     20 CL         69.4020   93.7149   15.5327 Cl      1  UNL1       -0.0824
     21 C          67.1161   92.9061   16.4658 C.2     1  UNL1       -0.0058
     22 C          65.7488   92.3336   16.2367 C.3     1  UNL1        0.1046
     23 C          65.2999   91.9973   14.8456 C.2     1  UNL1        0.2175
     24 N          64.0187   91.4253   14.3150 N.2     1  UNL1       -0.0383
@<TRIPOS>BOND
     1     1     2    2
     2     2     3    1
     3     3     4    1
     4     4     8    1
     5     8     9    1
     6     9    10    1
     7    10    11    1
     8    11    12    1
     9    12    13    1
    10     4     5    2
    11     5     6    1
    12     6    14    1
    13    14    15    1
    14    15    16    2
    15    16    17    1
    16    17    18    2
    17    18    19    1
    18    19    20    1
    19    19    21    2
    20    21    22    1
    21    22    23    1
    22    23    24    2
    23     6     7    2
    24     7     2    1
    25    13     8    1
    26    24    15    1
    27    23    17    1
