@<TRIPOS>MOLECULE
*****
 28 32 0 0 0
SMALL
GASTEIGER

@<TRIPOS>ATOM
      1 C          62.8968   83.6278   13.9441 C.ar    1  UNL1        0.0653
      2 C          63.7834   84.0321   15.0843 C.ar    1  UNL1        0.0188
      3 C          64.2841   85.4427   15.1813 C.ar    1  UNL1        0.0158
      4 C          63.8982   86.4490   14.1380 C.ar    1  UNL1        0.0454
      5 C          63.0115   86.0447   12.9977 C.ar    1  UNL1       -0.0070
      6 C          62.5108   84.6341   12.9008 C.ar    1  UNL1        0.0145
      7 C          62.5105   86.8834   11.8596 C.3     1  UNL1        0.0325
      8 C          62.7725   88.3339   11.5807 C.3     1  UNL1        0.0355
      9 C          63.6001   89.3036   12.3710 C.ar    1  UNL1        0.0302
     10 C          63.7848   90.7407   11.9827 C.ar    1  UNL1        0.0940
     11 N          64.6691   91.3877   13.0071 N.ar    1  UNL1       -0.2441
     12 N          65.0309   90.3505   14.0286 N.ar    1  UNL1       -0.1541
     13 C          64.3702   89.0625   13.6354 C.ar    1  UNL1        0.1493
     14 N          64.5029   87.7920   14.4218 N.pl3   1  UNL1       -0.2970
     15 H          65.0606   87.8470   15.2313 H       1  UNL1        0.1536
     16 CL         59.7846   79.3723   14.2385 Cl      1  UNL1       -0.0597
     17 C          60.9654   80.2611   13.9824 C.ar    1  UNL1        0.1575
     18 C          61.0339   81.7354   14.2505 C.ar    1  UNL1        0.1124
     19 N          62.3960   82.2171   13.8470 N.ar    1  UNL1       -0.2857
     20 C          63.1693   81.0407   13.3295 C.ar    1  UNL1        0.1836
     21 N          62.2852   79.8318   13.4131 N.ar    1  UNL1       -0.2120
     22 C          65.1135   92.8203   13.0096 C.3     1  UNL1        0.1539
     23 C          65.9570   93.3458   11.8861 C.ar    1  UNL1        0.0021
     24 C          66.0236   94.8214   11.6250 C.ar    1  UNL1       -0.0023
     25 C          66.8671   95.3470   10.5015 C.ar    1  UNL1       -0.0003
     26 C          67.6440   94.3970    9.6391 C.ar    1  UNL1       -0.0000
     27 C          67.5775   92.9214    9.9001 C.ar    1  UNL1       -0.0003
     28 C          66.7339   92.3958   11.0237 C.ar    1  UNL1       -0.0023
@<TRIPOS>BOND
     1    16    17    1
     2    17    18   ar
     3    18    19   ar
     4    19     1    1
     5     1     2   ar
     6     2     3   ar
     7     3     4   ar
     8     4     5   ar
     9     5     6   ar
    10     5     7    1
    11     7     8    1
    12     8     9    1
    13     9    10   ar
    14    10    11   ar
    15    11    22    1
    16    22    23    1
    17    23    24   ar
    18    24    25   ar
    19    25    26   ar
    20    26    27   ar
    21    27    28   ar
    22    11    12   ar
    23    12    13   ar
    24    13    14    1
    25    19    20   ar
    26    20    21   ar
    27    21    17   ar
    28     6     1   ar
    29    13     9   ar
    30    14     4    1
    31    28    23   ar
    32    14    15    1
@<TRIPOS>MOLECULE
*****
 28 32 0 0 0
SMALL
GASTEIGER

@<TRIPOS>ATOM
      1 C          59.5637   89.3424    6.9209 C.ar    1  UNL1        0.0653
      2 C          59.1245   87.9146    6.7856 C.ar    1  UNL1        0.0188
      3 C          59.5989   86.8876    7.7706 C.ar    1  UNL1        0.0158
      4 C          60.5125   87.2884    8.8907 C.ar    1  UNL1        0.0454
      5 C          60.9517   88.7162    9.0260 C.ar    1  UNL1       -0.0070
      6 C          60.4773   89.7433    8.0410 C.ar    1  UNL1        0.0145
      7 C          61.8520   89.3239   10.0604 C.3     1  UNL1        0.0325
      8 C          62.5355   88.6536   11.2153 C.3     1  UNL1        0.0355
      9 C          62.4875   87.2103   11.6208 C.ar    1  UNL1        0.0302
     10 C          63.2226   86.6603   12.8070 C.ar    1  UNL1        0.0940
     11 N          62.9335   85.1908   12.8910 N.ar    1  UNL1       -0.2441
     12 N          62.0198   84.8326   11.7567 N.ar    1  UNL1       -0.1541
     13 C          61.7441   86.0807   10.9717 C.ar    1  UNL1        0.1493
     14 N          60.8651   86.1155    9.7567 N.pl3   1  UNL1       -0.2970
     15 H          60.4671   85.2546    9.4926 H       1  UNL1        0.1536
     16 CL         59.5143   93.0271    3.1391 Cl      1  UNL1       -0.0597
     17 C          59.0667   92.0632    4.1976 C.ar    1  UNL1        0.1575
     18 C          59.9548   91.1563    4.9968 C.ar    1  UNL1        0.1124
     19 N          59.0893   90.3696    5.9359 N.ar    1  UNL1       -0.2857
     20 C          57.6663   90.7902    5.7172 C.ar    1  UNL1        0.1836
     21 N          57.6522   91.8369    4.6429 N.ar    1  UNL1       -0.2120
     22 C          63.4650   84.2456   13.9274 C.3     1  UNL1        0.1539
     23 C          63.0503   82.8041   13.9108 C.ar    1  UNL1        0.0021
     24 C          61.6584   82.4194   14.3165 C.ar    1  UNL1       -0.0023
     25 C          61.2438   80.9780   14.2999 C.ar    1  UNL1       -0.0003
     26 C          62.2209   79.9212   13.8777 C.ar    1  UNL1       -0.0000
     27 C          63.6128   80.3059   13.4720 C.ar    1  UNL1       -0.0003
     28 C          64.0276   81.7474   13.4885 C.ar    1  UNL1       -0.0023
@<TRIPOS>BOND
     1    16    17    1
     2    17    18   ar
     3    18    19   ar
     4    19     1    1
     5     1     2   ar
     6     2     3   ar
     7     3     4   ar
     8     4     5   ar
     9     5     6   ar
    10     5     7    1
    11     7     8    1
    12     8     9    1
    13     9    10   ar
    14    10    11   ar
    15    11    22    1
    16    22    23    1
    17    23    24   ar
    18    24    25   ar
    19    25    26   ar
    20    26    27   ar
    21    27    28   ar
    22    11    12   ar
    23    12    13   ar
    24    13    14    1
    25    19    20   ar
    26    20    21   ar
    27    21    17   ar
    28     6     1   ar
    29    13     9   ar
    30    14     4    1
    31    28    23   ar
    32    14    15    1
@<TRIPOS>MOLECULE
*****
 28 32 0 0 0
SMALL
GASTEIGER

@<TRIPOS>ATOM
      1 C          63.2581   82.5316   12.9353 C.ar    1  UNL1        0.0653
      2 C          64.0255   82.7208   14.2101 C.ar    1  UNL1        0.0188
      3 C          64.3746   84.1028   14.6773 C.ar    1  UNL1        0.0158
      4 C          63.9563   85.2955   13.8696 C.ar    1  UNL1        0.0454
      5 C          63.1889   85.1063   12.5948 C.ar    1  UNL1       -0.0070
      6 C          62.8398   83.7244   12.1276 C.ar    1  UNL1        0.0145
      7 C          62.6792   86.1505   11.6462 C.3     1  UNL1        0.0325
      8 C          62.8111   87.6419   11.7383 C.3     1  UNL1        0.0355
      9 C          63.4852   88.4574   12.8016 C.ar    1  UNL1        0.0302
     10 C          63.5486   89.9559   12.7779 C.ar    1  UNL1        0.0940
     11 N          64.2966   90.4075   13.9972 N.ar    1  UNL1       -0.2441
     12 N          64.6954   89.1881   14.7744 N.ar    1  UNL1       -0.1541
     13 C          64.1939   87.9829   14.0355 C.ar    1  UNL1        0.1493
     14 N          64.4036   86.5757   14.5108 N.pl3   1  UNL1       -0.2970
     15 H          64.9005   86.4796   15.3552 H       1  UNL1        0.1536
     16 CL         62.5732   78.2930    9.8618 Cl      1  UNL1       -0.0597
     17 C          62.5942   79.2014   11.0553 C.ar    1  UNL1        0.1575
     18 C          63.0637   80.6259   11.0710 C.ar    1  UNL1        0.1124
     19 N          62.9090   81.1496   12.4680 N.ar    1  UNL1       -0.2857
     20 C          62.3439   80.0488   13.3158 C.ar    1  UNL1        0.1836
     21 N          62.1493   78.8447   12.4427 N.ar    1  UNL1       -0.2120
     22 C          64.5935   91.8288   14.3732 C.3     1  UNL1        0.1539
     23 C          66.0013   92.2444   14.6825 C.ar    1  UNL1        0.0021
     24 C          67.0921   92.0006   13.6822 C.ar    1  UNL1       -0.0023
     25 C          68.4998   92.4161   13.9915 C.ar    1  UNL1       -0.0003
     26 C          68.8167   93.0754   15.3010 C.ar    1  UNL1       -0.0000
     27 C          67.7259   93.3192   16.3013 C.ar    1  UNL1       -0.0003
     28 C          66.3181   92.9037   15.9920 C.ar    1  UNL1       -0.0023
@<TRIPOS>BOND
     1    16    17    1
     2    17    18   ar
     3    18    19   ar
     4    19     1    1
     5     1     2   ar
     6     2     3   ar
     7     3     4   ar
     8     4     5   ar
     9     5     6   ar
    10     5     7    1
    11     7     8    1
    12     8     9    1
    13     9    10   ar
    14    10    11   ar
    15    11    22    1
    16    22    23    1
    17    23    24   ar
    18    24    25   ar
    19    25    26   ar
    20    26    27   ar
    21    27    28   ar
    22    11    12   ar
    23    12    13   ar
    24    13    14    1
    25    19    20   ar
    26    20    21   ar
    27    21    17   ar
    28     6     1   ar
    29    13     9   ar
    30    14     4    1
    31    28    23   ar
    32    14    15    1
@<TRIPOS>MOLECULE
*****
 28 32 0 0 0
SMALL
GASTEIGER

@<TRIPOS>ATOM
      1 C          62.7227   84.8535   13.0527 C.ar    1  UNL1        0.0653
      2 C          62.2188   85.4115   11.7548 C.ar    1  UNL1        0.0188
      3 C          62.4998   86.8398   11.3930 C.ar    1  UNL1        0.0158
      4 C          63.2847   87.7101   12.3291 C.ar    1  UNL1        0.0454
      5 C          63.7886   87.1522   13.6270 C.ar    1  UNL1       -0.0070
      6 C          63.5077   85.7239   13.9888 C.ar    1  UNL1        0.0145
      7 C          64.5840   87.8419   14.6955 C.3     1  UNL1        0.0325
      8 C          65.0718   89.2599   14.7299 C.3     1  UNL1        0.0355
      9 C          64.8848   90.3385   13.7044 C.ar    1  UNL1        0.0302
     10 C          65.4270   91.7285   13.8587 C.ar    1  UNL1        0.0940
     11 N          65.0411   92.5145   12.6408 N.ar    1  UNL1       -0.2441
     12 N          64.2603   91.6102   11.7338 N.ar    1  UNL1       -0.1541
     13 C          64.1638   90.2654   12.3911 C.ar    1  UNL1        0.1493
     14 N          63.4516   89.0956   11.7791 N.pl3   1  UNL1       -0.2970
     15 H          63.0393   89.2588   10.9001 H       1  UNL1        0.1536
     16 CL         62.2474   79.6022   12.7723 Cl      1  UNL1       -0.0597
     17 C          62.2233   81.0114   13.2856 C.ar    1  UNL1        0.1575
     18 C          62.6227   82.2365   12.5177 C.ar    1  UNL1        0.1124
     19 N          62.4417   83.4252   13.4146 N.ar    1  UNL1       -0.2857
     20 C          61.9305   82.9348   14.7367 C.ar    1  UNL1        0.1836
     21 N          61.7954   81.4430   14.6570 N.ar    1  UNL1       -0.2120
     22 C          65.3769   93.9523   12.3764 C.3     1  UNL1        0.1539
     23 C          66.1774   94.3248   11.1638 C.ar    1  UNL1        0.0021
     24 C          66.9605   93.2761   10.4309 C.ar    1  UNL1       -0.0023
     25 C          67.7610   93.6485    9.2184 C.ar    1  UNL1       -0.0003
     26 C          67.7786   95.0696    8.7386 C.ar    1  UNL1       -0.0000
     27 C          66.9956   96.1183    9.4715 C.ar    1  UNL1       -0.0003
     28 C          66.1949   95.7459   10.6842 C.ar    1  UNL1       -0.0023
@<TRIPOS>BOND
     1    16    17    1
     2    17    18   ar
     3    18    19   ar
     4    19     1    1
     5     1     2   ar
     6     2     3   ar
     7     3     4   ar
     8     4     5   ar
     9     5     6   ar
    10     5     7    1
    11     7     8    1
    12     8     9    1
    13     9    10   ar
    14    10    11   ar
    15    11    22    1
    16    22    23    1
    17    23    24   ar
    18    24    25   ar
    19    25    26   ar
    20    26    27   ar
    21    27    28   ar
    22    11    12   ar
    23    12    13   ar
    24    13    14    1
    25    19    20   ar
    26    20    21   ar
    27    21    17   ar
    28     6     1   ar
    29    13     9   ar
    30    14     4    1
    31    28    23   ar
    32    14    15    1
@<TRIPOS>MOLECULE
*****
 28 32 0 0 0
SMALL
GASTEIGER

@<TRIPOS>ATOM
      1 C          63.1274   94.9624   -0.2601 C.ar    1  UNL1        0.0653
      2 C          61.7266   95.4799   -0.1187 C.ar    1  UNL1        0.0188
      3 C          60.8032   94.8766    0.8978 C.ar    1  UNL1        0.0158
      4 C          61.2806   93.7557    1.7729 C.ar    1  UNL1        0.0454
      5 C          62.6813   93.2382    1.6315 C.ar    1  UNL1       -0.0070
      6 C          63.6047   93.8415    0.6150 C.ar    1  UNL1        0.0145
      7 C          63.3534   92.1373    2.3972 C.3     1  UNL1        0.0325
      8 C          62.7906   91.2820    3.4935 C.3     1  UNL1        0.0355
      9 C          61.4168   91.3163    4.0947 C.ar    1  UNL1        0.0302
     10 C          60.9735   90.3994    5.1959 C.ar    1  UNL1        0.0940
     11 N          59.5493   90.7308    5.5301 N.ar    1  UNL1       -0.2441
     12 N          59.1123   91.8526    4.6353 N.ar    1  UNL1       -0.1541
     13 C          60.2665   92.2145    3.7483 C.ar    1  UNL1        0.1493
     14 N          60.2059   93.3001    2.7149 N.pl3   1  UNL1       -0.2970
     15 H          59.3472   93.7767    2.6459 H       1  UNL1        0.1536
     16 CL         65.4223   96.1982   -4.8522 Cl      1  UNL1       -0.0597
     17 C          65.1057   96.1337   -3.3874 C.ar    1  UNL1        0.1575
     18 C          64.0012   95.3373   -2.7583 C.ar    1  UNL1        0.1124
     19 N          64.0508   95.5657   -1.2766 N.ar    1  UNL1       -0.2857
     20 C          65.1860   96.5033   -0.9899 C.ar    1  UNL1        0.1836
     21 N          65.8380   96.8544   -2.2944 N.ar    1  UNL1       -0.2120
     22 C          58.7095   90.0585    6.5754 C.3     1  UNL1        0.1539
     23 C          59.3055   88.9897    7.4430 C.ar    1  UNL1        0.0021
     24 C          59.0305   87.5448    7.1486 C.ar    1  UNL1       -0.0023
     25 C          59.6264   86.4761    8.0161 C.ar    1  UNL1       -0.0003
     26 C          60.4973   86.8522    9.1780 C.ar    1  UNL1       -0.0000
     27 C          60.7723   88.2970    9.4724 C.ar    1  UNL1       -0.0003
     28 C          60.1764   89.3659    8.6048 C.ar    1  UNL1       -0.0023
@<TRIPOS>BOND
     1    16    17    1
     2    17    18   ar
     3    18    19   ar
     4    19     1    1
     5     1     2   ar
     6     2     3   ar
     7     3     4   ar
     8     4     5   ar
     9     5     6   ar
    10     5     7    1
    11     7     8    1
    12     8     9    1
    13     9    10   ar
    14    10    11   ar
    15    11    22    1
    16    22    23    1
    17    23    24   ar
    18    24    25   ar
    19    25    26   ar
    20    26    27   ar
    21    27    28   ar
    22    11    12   ar
    23    12    13   ar
    24    13    14    1
    25    19    20   ar
    26    20    21   ar
    27    21    17   ar
    28     6     1   ar
    29    13     9   ar
    30    14     4    1
    31    28    23   ar
    32    14    15    1
@<TRIPOS>MOLECULE
*****
 28 32 0 0 0
SMALL
GASTEIGER

@<TRIPOS>ATOM
      1 C          62.6198   83.9061   13.1465 C.ar    1  UNL1        0.0653
      2 C          62.1379   84.4653   11.8408 C.ar    1  UNL1        0.0188
      3 C          62.3829   85.9067   11.5061 C.ar    1  UNL1        0.0158
      4 C          63.1099   86.7891   12.4772 C.ar    1  UNL1        0.0454
      5 C          63.5918   86.2300   13.7830 C.ar    1  UNL1       -0.0070
      6 C          63.3468   84.7885   14.1176 C.ar    1  UNL1        0.0145
      7 C          64.3310   86.9302   14.8844 C.3     1  UNL1        0.0325
      8 C          64.7709   88.3627   14.9520 C.3     1  UNL1        0.0355
      9 C          64.5802   89.4486   13.9349 C.ar    1  UNL1        0.0302
     10 C          65.0715   90.8532   14.1237 C.ar    1  UNL1        0.0940
     11 N          64.6976   91.6430   12.9045 N.ar    1  UNL1       -0.2441
     12 N          63.9750   90.7265   11.9622 N.ar    1  UNL1       -0.1541
     13 C          63.9025   89.3704   12.5991 C.ar    1  UNL1        0.1493
     14 N          63.2481   88.1867   11.9503 N.pl3   1  UNL1       -0.2970
     15 H          62.8578   88.3485   11.0611 H       1  UNL1        0.1536
     16 CL         60.1952   79.3694   14.3384 Cl      1  UNL1       -0.0597
     17 C          61.2603   80.3793   14.0291 C.ar    1  UNL1        0.1575
     18 C          61.0377   81.8324   13.7310 C.ar    1  UNL1        0.1124
     19 N          62.3748   82.4646   13.4813 N.ar    1  UNL1       -0.2857
     20 C          63.4239   81.4022   13.6250 C.ar    1  UNL1        0.1836
     21 N          62.7352   80.1134   13.9636 N.ar    1  UNL1       -0.2120
     22 C          64.9941   93.0944   12.6691 C.3     1  UNL1        0.1539
     23 C          65.9277   93.5000   11.5673 C.ar    1  UNL1        0.0021
     24 C          65.9933   94.9332   11.1294 C.ar    1  UNL1       -0.0023
     25 C          66.9268   95.3388   10.0277 C.ar    1  UNL1       -0.0003
     26 C          67.7950   94.3114    9.3639 C.ar    1  UNL1       -0.0000
     27 C          67.7294   92.8782    9.8018 C.ar    1  UNL1       -0.0003
     28 C          66.7958   92.4725   10.9035 C.ar    1  UNL1       -0.0023
@<TRIPOS>BOND
     1    16    17    1
     2    17    18   ar
     3    18    19   ar
     4    19     1    1
     5     1     2   ar
     6     2     3   ar
     7     3     4   ar
     8     4     5   ar
     9     5     6   ar
    10     5     7    1
    11     7     8    1
    12     8     9    1
    13     9    10   ar
    14    10    11   ar
    15    11    22    1
    16    22    23    1
    17    23    24   ar
    18    24    25   ar
    19    25    26   ar
    20    26    27   ar
    21    27    28   ar
    22    11    12   ar
    23    12    13   ar
    24    13    14    1
    25    19    20   ar
    26    20    21   ar
    27    21    17   ar
    28     6     1   ar
    29    13     9   ar
    30    14     4    1
    31    28    23   ar
    32    14    15    1
@<TRIPOS>MOLECULE
*****
 28 32 0 0 0
SMALL
GASTEIGER

@<TRIPOS>ATOM
      1 C          62.8567   82.5296   12.0659 C.ar    1  UNL1        0.0653
      2 C          62.3686   83.4145   10.9575 C.ar    1  UNL1        0.0188
      3 C          62.5097   84.9036   11.0694 C.ar    1  UNL1        0.0158
      4 C          63.1389   85.5078   12.2896 C.ar    1  UNL1        0.0454
      5 C          63.6270   84.6229   13.3980 C.ar    1  UNL1       -0.0070
      6 C          63.4860   83.1338   13.2861 C.ar    1  UNL1        0.0145
      7 C          64.2790   85.0160   14.6904 C.3     1  UNL1        0.0325
      8 C          64.6040   86.3913   15.1936 C.3     1  UNL1        0.0355
      9 C          64.3571   87.7130   14.5286 C.ar    1  UNL1        0.0302
     10 C          64.7323   89.0294   15.1420 C.ar    1  UNL1        0.0940
     11 N          64.3314   90.1160   14.1887 N.ar    1  UNL1       -0.2441
     12 N          63.7085   89.4710   12.9862 N.ar    1  UNL1       -0.1541
     13 C          63.7244   87.9859   13.1963 C.ar    1  UNL1        0.1493
     14 N          63.1822   87.0045   12.1999 N.pl3   1  UNL1       -0.2970
     15 H          62.8049   87.3942   11.3783 H       1  UNL1        0.1536
     16 CL         62.7655   77.6270   10.1069 Cl      1  UNL1       -0.0597
     17 C          62.6738   78.7869   11.0536 C.ar    1  UNL1        0.1575
     18 C          62.9161   80.2267   10.7099 C.ar    1  UNL1        0.1124
     19 N          62.7157   81.0404   11.9540 N.ar    1  UNL1       -0.2857
     20 C          62.3495   80.1034   13.0667 C.ar    1  UNL1        0.1836
     21 N          62.3236   78.7107   12.5102 N.ar    1  UNL1       -0.2120
     22 C          64.5203   91.5888   14.4008 C.3     1  UNL1        0.1539
     23 C          65.8867   92.1357   14.6903 C.ar    1  UNL1        0.0021
     24 C          66.1966   92.7016   16.0444 C.ar    1  UNL1       -0.0023
     25 C          67.5630   93.2485   16.3339 C.ar    1  UNL1       -0.0003
     26 C          68.6196   93.2295   15.2694 C.ar    1  UNL1       -0.0000
     27 C          68.3097   92.6636   13.9153 C.ar    1  UNL1       -0.0003
     28 C          66.9432   92.1166   13.6257 C.ar    1  UNL1       -0.0023
@<TRIPOS>BOND
     1    16    17    1
     2    17    18   ar
     3    18    19   ar
     4    19     1    1
     5     1     2   ar
     6     2     3   ar
     7     3     4   ar
     8     4     5   ar
     9     5     6   ar
    10     5     7    1
    11     7     8    1
    12     8     9    1
    13     9    10   ar
    14    10    11   ar
    15    11    22    1
    16    22    23    1
    17    23    24   ar
    18    24    25   ar
    19    25    26   ar
    20    26    27   ar
    21    27    28   ar
    22    11    12   ar
    23    12    13   ar
    24    13    14    1
    25    19    20   ar
    26    20    21   ar
    27    21    17   ar
    28     6     1   ar
    29    13     9   ar
    30    14     4    1
    31    28    23   ar
    32    14    15    1
@<TRIPOS>MOLECULE
*****
 28 32 0 0 0
SMALL
GASTEIGER

@<TRIPOS>ATOM
      1 C          59.5805   90.0309    6.2144 C.ar    1  UNL1        0.0653
      2 C          58.3364   90.7628    5.8063 C.ar    1  UNL1        0.0188
      3 C          58.3821   91.7468    4.6752 C.ar    1  UNL1        0.0158
      4 C          59.6719   91.9991    3.9521 C.ar    1  UNL1        0.0454
      5 C          60.9160   91.2673    4.3602 C.ar    1  UNL1       -0.0070
      6 C          60.8703   90.2832    5.4913 C.ar    1  UNL1        0.0145
      7 C          62.2945   91.3690    3.7777 C.3     1  UNL1        0.0325
      8 C          62.7693   92.2278    2.6432 C.3     1  UNL1        0.0355
      9 C          61.9829   93.1969    1.8111 C.ar    1  UNL1        0.0302
     10 C          62.5800   94.0025    0.6954 C.ar    1  UNL1        0.0940
     11 N          61.4935   94.8500    0.1028 N.ar    1  UNL1       -0.2441
     12 N          60.2250   94.5682    0.8521 N.ar    1  UNL1       -0.1541
     13 C          60.5275   93.5466    1.9078 C.ar    1  UNL1        0.1493
     14 N          59.4990   93.0135    2.8607 N.pl3   1  UNL1       -0.2970
     15 H          58.5903   93.3775    2.7560 H       1  UNL1        0.1536
     16 CL         60.1924   87.8084   10.9649 Cl      1  UNL1       -0.0597
     17 C          59.8161   88.0253    9.5291 C.ar    1  UNL1        0.1575
     18 C          60.0767   89.2657    8.7270 C.ar    1  UNL1        0.1124
     19 N          59.5349   89.0468    7.3455 N.ar    1  UNL1       -0.2857
     20 C          58.9394   87.6711    7.2938 C.ar    1  UNL1        0.1836
     21 N          59.1132   87.0397    8.6433 N.ar    1  UNL1       -0.2120
     22 C          61.6484   95.8106   -1.0388 C.3     1  UNL1        0.1539
     23 C          62.6234   95.5159   -2.1400 C.ar    1  UNL1        0.0021
     24 C          63.9212   96.2646   -2.2128 C.ar    1  UNL1       -0.0023
     25 C          64.8962   95.9699   -3.3139 C.ar    1  UNL1       -0.0003
     26 C          64.5735   94.9267   -4.3422 C.ar    1  UNL1       -0.0000
     27 C          63.2757   94.1780   -4.2694 C.ar    1  UNL1       -0.0003
     28 C          62.3006   94.4727   -3.1682 C.ar    1  UNL1       -0.0023
@<TRIPOS>BOND
     1    16    17    1
     2    17    18   ar
     3    18    19   ar
     4    19     1    1
     5     1     2   ar
     6     2     3   ar
     7     3     4   ar
     8     4     5   ar
     9     5     6   ar
    10     5     7    1
    11     7     8    1
    12     8     9    1
    13     9    10   ar
    14    10    11   ar
    15    11    22    1
    16    22    23    1
    17    23    24   ar
    18    24    25   ar
    19    25    26   ar
    20    26    27   ar
    21    27    28   ar
    22    11    12   ar
    23    12    13   ar
    24    13    14    1
    25    19    20   ar
    26    20    21   ar
    27    21    17   ar
    28     6     1   ar
    29    13     9   ar
    30    14     4    1
    31    28    23   ar
    32    14    15    1
@<TRIPOS>MOLECULE
*****
 28 32 0 0 0
SMALL
GASTEIGER

@<TRIPOS>ATOM
      1 C          59.5121   89.9722    6.3111 C.ar    1  UNL1        0.0653
      2 C          58.2222   90.6415    5.9395 C.ar    1  UNL1        0.0188
      3 C          58.1814   91.6062    4.7916 C.ar    1  UNL1        0.0158
      4 C          59.4306   91.9017    4.0155 C.ar    1  UNL1        0.0454
      5 C          60.7204   91.2323    4.3871 C.ar    1  UNL1       -0.0070
      6 C          60.7612   90.2676    5.5350 C.ar    1  UNL1        0.0145
      7 C          62.0701   91.3838    3.7504 C.3     1  UNL1        0.0325
      8 C          62.4632   92.2421    2.5847 C.3     1  UNL1        0.0355
      9 C          61.6037   93.1609    1.7679 C.ar    1  UNL1        0.0302
     10 C          62.1219   93.9717    0.6172 C.ar    1  UNL1        0.0940
     11 N          60.9773   94.7602    0.0531 N.ar    1  UNL1       -0.2441
     12 N          59.7517   94.4367    0.8552 N.ar    1  UNL1       -0.1541
     13 C          60.1389   93.4483    1.9149 C.ar    1  UNL1        0.1493
     14 N          59.1718   92.8878    2.9153 N.pl3   1  UNL1       -0.2970
     15 H          58.2445   93.2098    2.8397 H       1  UNL1        0.1536
     16 CL         60.3972   87.8652   11.0712 Cl      1  UNL1       -0.0597
     17 C          59.9598   88.0389    9.6470 C.ar    1  UNL1        0.1575
     18 C          60.1336   89.2755    8.8159 C.ar    1  UNL1        0.1124
     19 N          59.5529   89.0074    7.4590 N.ar    1  UNL1       -0.2857
     20 C          59.0202   87.6052    7.4516 C.ar    1  UNL1        0.1836
     21 N          59.2717   87.0066    8.8038 N.ar    1  UNL1       -0.2120
     22 C          61.0462   95.7061   -1.1089 C.3     1  UNL1        0.1539
     23 C          60.1826   95.4779   -2.3140 C.ar    1  UNL1        0.0021
     24 C          59.9360   94.0827   -2.8066 C.ar    1  UNL1       -0.0023
     25 C          59.0725   93.8544   -4.0116 C.ar    1  UNL1       -0.0003
     26 C          58.4555   95.0213   -4.7242 C.ar    1  UNL1       -0.0000
     27 C          58.7022   96.4165   -4.2316 C.ar    1  UNL1       -0.0003
     28 C          59.5657   96.6448   -3.0265 C.ar    1  UNL1       -0.0023
@<TRIPOS>BOND
     1    16    17    1
     2    17    18   ar
     3    18    19   ar
     4    19     1    1
     5     1     2   ar
     6     2     3   ar
     7     3     4   ar
     8     4     5   ar
     9     5     6   ar
    10     5     7    1
    11     7     8    1
    12     8     9    1
    13     9    10   ar
    14    10    11   ar
    15    11    22    1
    16    22    23    1
    17    23    24   ar
    18    24    25   ar
    19    25    26   ar
    20    26    27   ar
    21    27    28   ar
    22    11    12   ar
    23    12    13   ar
    24    13    14    1
    25    19    20   ar
    26    20    21   ar
    27    21    17   ar
    28     6     1   ar
    29    13     9   ar
    30    14     4    1
    31    28    23   ar
    32    14    15    1
