@<TRIPOS>MOLECULE
*****
 33 37 0 0 0
SMALL
GASTEIGER

@<TRIPOS>ATOM
      1 N          64.6259   91.6380   12.6235 N.am    1  UNL1       -0.2723
      2 C          64.6381   92.0036   11.1688 C.2     1  UNL1        0.2685
      3 O          63.5122   91.5706   10.2771 O.2     1  UNL1       -0.2682
      4 C          65.7517   92.0709   13.5150 C.3     1  UNL1        0.0761
      5 C          66.6589   91.1644   14.2930 C.3     1  UNL1        0.0213
      6 C          67.6360   92.0196   15.0440 C.3     1  UNL1        0.0188
      7 C          68.8005   91.9879   15.9890 C.3     1  UNL1        0.0686
      8 N          69.2168   93.4034   16.2591 N.3     1  UNL1       -0.2975
      9 C          68.3097   94.3099   15.4812 C.3     1  UNL1        0.0686
     10 C          67.3326   93.4547   14.7302 C.3     1  UNL1        0.0188
     11 C          66.1681   93.4865   13.7852 C.3     1  UNL1        0.0213
     12 H          70.1827   93.5427   15.9625 H       1  UNL1        0.1232
     13 C          65.7762   92.8021   10.6056 C.ar    1  UNL1        0.1535
     14 C          65.7563   94.2702   10.2987 C.ar    1  UNL1        0.1012
     15 N          67.1018   94.6481    9.7540 N.ar    1  UNL1       -0.3057
     16 C          67.5221   96.0198    9.3159 C.3     1  UNL1        0.1321
     17 C          67.9533   93.4136    9.7242 C.ar    1  UNL1        0.1787
     18 N          67.1340   92.2727   10.2506 N.ar    1  UNL1       -0.2192
     19 C          63.4877   90.8394   13.1865 C.3     1  UNL1        0.1205
     20 C          63.9372   86.4041   13.7991 C.ar    1  UNL1        0.1724
     21 C          64.4583   87.3603   14.8307 C.ar    1  UNL1        0.0398
     22 C          64.3085   88.8387   14.6265 C.ar    1  UNL1        0.0007
     23 C          63.6375   89.3611   13.3907 C.ar    1  UNL1        0.0009
     24 C          63.1164   88.4048   12.3591 C.ar    1  UNL1        0.0374
     25 C          63.2663   86.9264   12.5634 C.ar    1  UNL1        0.1718
     26 C          63.0129   84.1535   14.7106 C.3     1  UNL1        0.2526
     27 O          64.0870   84.9256   14.0033 O.3     1  UNL1       -0.4684
     28 O          62.7451   85.9701   11.5318 O.3     1  UNL1       -0.4761
     29 C          61.7992   86.4521   10.4723 C.3     1  UNL1        0.1660
     30 C          60.5508   87.2514   10.7022 C.3     1  UNL1        0.0435
     31 C          59.9156   87.5127    9.3687 C.3     1  UNL1        0.0038
     32 C          60.7713   86.8750    8.3146 C.3     1  UNL1        0.0038
     33 C          61.9354   86.2195    8.9966 C.3     1  UNL1        0.0435
@<TRIPOS>BOND
     1    26    27    1
     2    27    20    1
     3    20    21   ar
     4    21    22   ar
     5    22    23   ar
     6    23    19    1
     7    19     1    1
     8     1     2   am
     9     2     3    2
    10     2    13    1
    11    13    14   ar
    12    14    15   ar
    13    15    16    1
    14    15    17   ar
    15    17    18   ar
    16     4     1    1
    17     4     5    1
    18     6     5    1
    19     6     7    1
    20     7     8    1
    21     8     9    1
    22    10     9    1
    23    10    11    1
    24    23    24   ar
    25    24    25   ar
    26    25    28    1
    27    28    29    1
    28    29    30    1
    29    30    31    1
    30    31    32    1
    31    32    33    1
    32    25    20   ar
    33    33    29    1
    34    18    13   ar
    35    11     4    1
    36    10     6    1
    37     8    12    1
@<TRIPOS>MOLECULE
*****
 33 37 0 0 0
SMALL
GASTEIGER

@<TRIPOS>ATOM
      1 N          64.2344   91.6128   12.1608 N.am    1  UNL1       -0.2723
      2 C          65.4046   92.5486   12.2319 C.2     1  UNL1        0.2685
      3 O          65.6273   93.5553   11.1423 O.2     1  UNL1       -0.2682
      4 C          64.0118   90.6063   13.2503 C.3     1  UNL1        0.0761
      5 C          64.2495   89.1288   13.1477 C.3     1  UNL1        0.0213
      6 C          63.8969   88.5098   14.4678 C.3     1  UNL1        0.0188
      7 C          63.8259   87.2141   15.2201 C.3     1  UNL1        0.0686
      8 N          63.3264   87.5082   16.6036 N.3     1  UNL1       -0.2975
      9 C          63.0887   88.9857   16.7062 C.3     1  UNL1        0.0686
     10 C          63.4413   89.6047   15.3862 C.3     1  UNL1        0.0188
     11 C          63.5123   90.9004   14.6338 C.3     1  UNL1        0.0213
     12 H          64.0228   87.2211   17.2914 H       1  UNL1        0.1232
     13 C          66.3521   92.4778   13.3926 C.ar    1  UNL1        0.1535
     14 C          66.9308   93.6482   14.1310 C.ar    1  UNL1        0.1012
     15 N          67.8236   93.1179   15.2134 N.ar    1  UNL1       -0.3057
     16 C          68.6060   93.9411   16.1933 C.3     1  UNL1        0.1321
     17 C          67.7966   91.6197   15.1440 C.ar    1  UNL1        0.1787
     18 N          66.8872   91.2242   14.0187 N.ar    1  UNL1       -0.2192
     19 C          63.2869   91.6837   11.0000 C.3     1  UNL1        0.1205
     20 C          60.4599   88.2772   10.1917 C.ar    1  UNL1        0.1724
     21 C          59.9627   89.5200   10.8687 C.ar    1  UNL1        0.0398
     22 C          60.9050   90.6555   11.1382 C.ar    1  UNL1        0.0007
     23 C          62.3447   90.5483   10.7306 C.ar    1  UNL1        0.0009
     24 C          62.8419   89.3055   10.0535 C.ar    1  UNL1        0.0374
     25 C          61.8995   88.1700    9.7841 C.ar    1  UNL1        0.1718
     26 C          59.0780   86.8489    8.5184 C.3     1  UNL1        0.2526
     27 O          59.5176   87.1417    9.9223 O.3     1  UNL1       -0.4684
     28 O          62.3967   86.9272    9.1071 O.3     1  UNL1       -0.4761
     29 C          62.6932   85.6997    9.9164 C.3     1  UNL1        0.1660
     30 C          63.4112   84.4755    9.4307 C.3     1  UNL1        0.0435
     31 C          63.4855   83.4999   10.5677 C.3     1  UNL1        0.0038
     32 C          62.8134   84.1212   11.7562 C.3     1  UNL1        0.0038
     33 C          62.3238   85.4807   11.3537 C.3     1  UNL1        0.0435
@<TRIPOS>BOND
     1    26    27    1
     2    27    20    1
     3    20    21   ar
     4    21    22   ar
     5    22    23   ar
     6    23    19    1
     7    19     1    1
     8     1     2   am
     9     2     3    2
    10     2    13    1
    11    13    14   ar
    12    14    15   ar
    13    15    16    1
    14    15    17   ar
    15    17    18   ar
    16     4     1    1
    17     4     5    1
    18     6     5    1
    19     6     7    1
    20     7     8    1
    21     8     9    1
    22    10     9    1
    23    10    11    1
    24    23    24   ar
    25    24    25   ar
    26    25    28    1
    27    28    29    1
    28    29    30    1
    29    30    31    1
    30    31    32    1
    31    32    33    1
    32    25    20   ar
    33    33    29    1
    34    18    13   ar
    35    11     4    1
    36    10     6    1
    37     8    12    1
@<TRIPOS>MOLECULE
*****
 33 37 0 0 0
SMALL
GASTEIGER

@<TRIPOS>ATOM
      1 N          64.3365   91.7905   12.2538 N.am    1  UNL1       -0.2723
      2 C          64.5401   91.7023   13.7373 C.2     1  UNL1        0.2685
      3 O          63.5062   91.0390   14.5982 O.2     1  UNL1       -0.2682
      4 C          65.3704   92.4537   11.3930 C.3     1  UNL1        0.0761
      5 C          66.6568   91.8383   10.9275 C.3     1  UNL1        0.0213
      6 C          67.3809   92.8531   10.0933 C.3     1  UNL1        0.0188
      7 C          68.6234   93.0998    9.2900 C.3     1  UNL1        0.0686
      8 N          68.5526   94.4949    8.7435 N.3     1  UNL1       -0.2975
      9 C          67.2663   95.1104    9.2090 C.3     1  UNL1        0.0686
     10 C          66.5421   94.0956   10.0432 C.3     1  UNL1        0.0188
     11 C          65.2996   93.8489   10.8464 C.3     1  UNL1        0.0213
     12 H          68.5749   94.4689    7.7241 H       1  UNL1        0.1232
     13 C          65.7777   92.2773   14.3599 C.ar    1  UNL1        0.1535
     14 C          66.8554   91.5019   15.0580 C.ar    1  UNL1        0.1012
     15 N          67.8986   92.4741   15.5233 N.ar    1  UNL1       -0.3057
     16 C          69.1543   92.1305   16.2684 C.3     1  UNL1        0.1321
     17 C          67.4657   93.8504   15.1128 C.ar    1  UNL1        0.1787
     18 N          66.1549   93.7287   14.3938 N.ar    1  UNL1       -0.2192
     19 C          63.0989   91.2154   11.6312 C.3     1  UNL1        0.1205
     20 C          62.4032   86.7700   11.6989 C.ar    1  UNL1        0.1724
     21 C          63.3474   87.3965   12.6819 C.ar    1  UNL1        0.0398
     22 C          63.5793   88.8783   12.6593 C.ar    1  UNL1        0.0007
     23 C          62.8670   89.7337   11.6537 C.ar    1  UNL1        0.0009
     24 C          61.9228   89.1072   10.6708 C.ar    1  UNL1        0.0374
     25 C          61.6910   87.6254   10.6934 C.ar    1  UNL1        0.1718
     26 C          63.1952   84.3781   12.3325 C.3     1  UNL1        0.2526
     27 O          62.1713   85.2882   11.7215 O.3     1  UNL1       -0.4684
     28 O          60.7469   86.9989    9.7104 O.3     1  UNL1       -0.4761
     29 C          61.2796   86.1439    8.5991 C.3     1  UNL1        0.1660
     30 C          62.6933   85.6630    8.4568 C.3     1  UNL1        0.0435
     31 C          62.7796   84.8416    7.2046 C.3     1  UNL1        0.0038
     32 C          61.4193   84.8148    6.5731 C.3     1  UNL1        0.0038
     33 C          60.4923   85.6197    7.4349 C.3     1  UNL1        0.0435
@<TRIPOS>BOND
     1    26    27    1
     2    27    20    1
     3    20    21   ar
     4    21    22   ar
     5    22    23   ar
     6    23    19    1
     7    19     1    1
     8     1     2   am
     9     2     3    2
    10     2    13    1
    11    13    14   ar
    12    14    15   ar
    13    15    16    1
    14    15    17   ar
    15    17    18   ar
    16     4     1    1
    17     4     5    1
    18     6     5    1
    19     6     7    1
    20     7     8    1
    21     8     9    1
    22    10     9    1
    23    10    11    1
    24    23    24   ar
    25    24    25   ar
    26    25    28    1
    27    28    29    1
    28    29    30    1
    29    30    31    1
    30    31    32    1
    31    32    33    1
    32    25    20   ar
    33    33    29    1
    34    18    13   ar
    35    11     4    1
    36    10     6    1
    37     8    12    1
@<TRIPOS>MOLECULE
*****
 33 37 0 0 0
SMALL
GASTEIGER

@<TRIPOS>ATOM
      1 N          64.3903   91.3960   12.2995 N.am    1  UNL1       -0.2723
      2 C          64.3836   91.9960   10.9248 C.2     1  UNL1        0.2685
      3 O          63.2721   91.6729    9.9707 O.2     1  UNL1       -0.2682
      4 C          65.5017   91.7192   13.2535 C.3     1  UNL1        0.0761
      5 C          66.9506   91.8767   12.8984 C.3     1  UNL1        0.0213
      6 C          67.7039   92.1964   14.1556 C.3     1  UNL1        0.0188
      7 C          69.0648   92.4914   14.7130 C.3     1  UNL1        0.0686
      8 N          68.9226   92.7137   16.1896 N.3     1  UNL1       -0.2975
      9 C          67.4738   92.5562   16.5447 C.3     1  UNL1        0.0686
     10 C          66.7206   92.2365   15.2876 C.3     1  UNL1        0.0188
     11 C          65.3596   91.9415   14.7301 C.3     1  UNL1        0.0213
     12 H          69.2378   93.6536   16.4300 H       1  UNL1        0.1232
     13 C          65.4885   92.9192   10.5040 C.ar    1  UNL1        0.1535
     14 C          65.4851   94.4138   10.6313 C.ar    1  UNL1        0.1012
     15 N          66.7852   94.9282   10.0880 N.ar    1  UNL1       -0.3057
     16 C          67.2048   96.3667   10.0198 C.3     1  UNL1        0.1321
     17 C          67.5921   93.7515    9.6251 C.ar    1  UNL1        0.1787
     18 N          66.7906   92.5099    9.8822 N.ar    1  UNL1       -0.2192
     19 C          63.2854   90.4728   12.7202 C.3     1  UNL1        0.1205
     20 C          60.4277   88.8387    9.6522 C.ar    1  UNL1        0.1724
     21 C          60.0753   90.0779   10.4204 C.ar    1  UNL1        0.0398
     22 C          61.0278   90.6226   11.4431 C.ar    1  UNL1        0.0007
     23 C          62.3329   89.9281   11.6976 C.ar    1  UNL1        0.0009
     24 C          62.6853   88.6889   10.9293 C.ar    1  UNL1        0.0374
     25 C          61.7327   88.1443    9.9066 C.ar    1  UNL1        0.1718
     26 C          59.4707   88.8512    7.2368 C.3     1  UNL1        0.2526
     27 O          59.4752   88.2940    8.6294 O.3     1  UNL1       -0.4684
     28 O          62.0851   86.9051    9.1383 O.3     1  UNL1       -0.4761
     29 C          62.5034   85.6635    9.8684 C.3     1  UNL1        0.1660
     30 C          62.1041   85.2844   11.2638 C.3     1  UNL1        0.0435
     31 C          62.7484   83.9695   11.5893 C.3     1  UNL1        0.0038
     32 C          63.5459   83.5358   10.3951 C.3     1  UNL1        0.0038
     33 C          63.3944   84.5828    9.3316 C.3     1  UNL1        0.0435
@<TRIPOS>BOND
     1    26    27    1
     2    27    20    1
     3    20    21   ar
     4    21    22   ar
     5    22    23   ar
     6    23    19    1
     7    19     1    1
     8     1     2   am
     9     2     3    2
    10     2    13    1
    11    13    14   ar
    12    14    15   ar
    13    15    16    1
    14    15    17   ar
    15    17    18   ar
    16     4     1    1
    17     4     5    1
    18     6     5    1
    19     6     7    1
    20     7     8    1
    21     8     9    1
    22    10     9    1
    23    10    11    1
    24    23    24   ar
    25    24    25   ar
    26    25    28    1
    27    28    29    1
    28    29    30    1
    29    30    31    1
    30    31    32    1
    31    32    33    1
    32    25    20   ar
    33    33    29    1
    34    18    13   ar
    35    11     4    1
    36    10     6    1
    37     8    12    1
@<TRIPOS>MOLECULE
*****
 33 37 0 0 0
SMALL
GASTEIGER

@<TRIPOS>ATOM
      1 N          64.1007   90.3179   14.3035 N.am    1  UNL1       -0.2723
      2 C          65.2311   91.2859   14.1162 C.2     1  UNL1        0.2685
      3 O          66.0921   91.6685   15.2835 O.2     1  UNL1       -0.2682
      4 C          63.2398   89.9354   13.1363 C.3     1  UNL1        0.0761
      5 C          61.9678   90.6125   12.7195 C.3     1  UNL1        0.0213
      6 C          61.4415   89.9041   11.5065 C.3     1  UNL1        0.0188
      7 C          60.3302   89.8848   10.4993 C.3     1  UNL1        0.0686
      8 N          60.5900   88.7580    9.5439 N.3     1  UNL1       -0.2975
      9 C          61.8620   88.0809    9.9606 C.3     1  UNL1        0.0686
     10 C          62.3883   88.7893   11.1736 C.3     1  UNL1        0.0188
     11 C          63.4996   88.8086   12.1808 C.3     1  UNL1        0.0213
     12 H          60.6866   89.1230    8.5963 H       1  UNL1        0.1232
     13 C          65.5006   91.8714   12.7618 C.ar    1  UNL1        0.1535
     14 C          66.8511   92.1897   12.1917 C.ar    1  UNL1        0.1012
     15 N          66.6521   92.7564   10.8172 N.ar    1  UNL1       -0.3057
     16 C          67.7361   93.2113    9.8856 C.3     1  UNL1        0.1321
     17 C          65.1787   92.7882   10.5378 C.ar    1  UNL1        0.1787
     18 N          64.4671   92.2413   11.7396 N.ar    1  UNL1       -0.2192
     19 C          63.8312   89.7325   15.6580 C.3     1  UNL1        0.1205
     20 C          63.3214   85.2861   16.1267 C.ar    1  UNL1        0.1724
     21 C          62.6561   86.2231   17.0908 C.ar    1  UNL1        0.0398
     22 C          62.8260   87.7052   16.9346 C.ar    1  UNL1        0.0007
     23 C          63.6613   88.2504   15.8142 C.ar    1  UNL1        0.0009
     24 C          64.3266   87.3134   14.8501 C.ar    1  UNL1        0.0374
     25 C          64.1566   85.8314   15.0064 C.ar    1  UNL1        0.1718
     26 C          62.3527   83.0304   15.2761 C.3     1  UNL1        0.2526
     27 O          63.1514   83.8040   16.2829 O.3     1  UNL1       -0.4684
     28 O          64.8219   84.8943   14.0422 O.3     1  UNL1       -0.4761
     29 C          64.1084   84.4738   12.7917 C.3     1  UNL1        0.1660
     30 C          64.4719   83.3097   11.9182 C.3     1  UNL1        0.0435
     31 C          63.4942   83.2600   10.7817 C.3     1  UNL1        0.0038
     32 C          62.5266   84.3933   10.9526 C.3     1  UNL1        0.0038
     33 C          62.9061   85.1435   12.1949 C.3     1  UNL1        0.0435
@<TRIPOS>BOND
     1    26    27    1
     2    27    20    1
     3    20    21   ar
     4    21    22   ar
     5    22    23   ar
     6    23    19    1
     7    19     1    1
     8     1     2   am
     9     2     3    2
    10     2    13    1
    11    13    14   ar
    12    14    15   ar
    13    15    16    1
    14    15    17   ar
    15    17    18   ar
    16     4     1    1
    17     4     5    1
    18     6     5    1
    19     6     7    1
    20     7     8    1
    21     8     9    1
    22    10     9    1
    23    10    11    1
    24    23    24   ar
    25    24    25   ar
    26    25    28    1
    27    28    29    1
    28    29    30    1
    29    30    31    1
    30    31    32    1
    31    32    33    1
    32    25    20   ar
    33    33    29    1
    34    18    13   ar
    35    11     4    1
    36    10     6    1
    37     8    12    1
@<TRIPOS>MOLECULE
*****
 33 37 0 0 0
SMALL
GASTEIGER

@<TRIPOS>ATOM
      1 N          62.4430   88.5657   11.9442 N.am    1  UNL1       -0.2723
      2 C          62.0504   88.7889   10.5138 C.2     1  UNL1        0.2685
      3 O          61.6968   90.1673   10.0393 O.2     1  UNL1       -0.2682
      4 C          62.7965   87.1874   12.4186 C.3     1  UNL1        0.0761
      5 C          62.1548   85.9084   11.9687 C.3     1  UNL1        0.0213
      6 C          62.8155   84.7765   12.6983 C.3     1  UNL1        0.0188
      7 C          62.8272   83.2866   12.8711 C.3     1  UNL1        0.0686
      8 N          63.8846   82.9452   13.8787 N.3     1  UNL1       -0.2975
      9 C          64.5264   84.2241   14.3287 C.3     1  UNL1        0.0686
     10 C          63.8656   85.3560   13.5991 C.3     1  UNL1        0.0188
     11 C          63.8539   86.8460   13.4263 C.3     1  UNL1        0.0213
     12 H          64.5848   82.3375   13.4534 H       1  UNL1        0.1232
     13 C          62.0113   87.6337    9.5578 C.ar    1  UNL1        0.1535
     14 C          60.8069   87.1537    8.8035 C.ar    1  UNL1        0.1012
     15 N          61.2211   85.9790    7.9678 N.ar    1  UNL1       -0.3057
     16 C          60.3311   85.1890    7.0546 C.3     1  UNL1        0.1321
     17 C          62.6815   85.7329    8.2055 C.ar    1  UNL1        0.1787
     18 N          63.1699   86.7555    9.1882 N.ar    1  UNL1       -0.2192
     19 C          62.4820   89.7210   12.9001 C.3     1  UNL1        0.1205
     20 C          66.2948   92.0419   13.4704 C.ar    1  UNL1        0.1724
     21 C          65.9552   90.9168   14.4024 C.ar    1  UNL1        0.0398
     22 C          64.6842   90.1431   14.2124 C.ar    1  UNL1        0.0007
     23 C          63.7529   90.4946   13.0902 C.ar    1  UNL1        0.0009
     24 C          64.0926   91.6198   12.1582 C.ar    1  UNL1        0.0374
     25 C          65.3635   92.3934   12.3483 C.ar    1  UNL1        0.1718
     26 C          68.2687   92.7896   14.9853 C.3     1  UNL1        0.2526
     27 O          67.5658   92.8156   13.6605 O.3     1  UNL1       -0.4684
     28 O          65.7032   93.5186   11.4163 O.3     1  UNL1       -0.4761
     29 C          66.7595   93.3312   10.3680 C.3     1  UNL1        0.1660
     30 C          67.6433   92.1292   10.2117 C.3     1  UNL1        0.0435
     31 C          68.5475   92.3681    9.0390 C.3     1  UNL1        0.0038
     32 C          68.2228   93.7177    8.4705 C.3     1  UNL1        0.0038
     33 C          67.1178   94.3129    9.2919 C.3     1  UNL1        0.0435
@<TRIPOS>BOND
     1    26    27    1
     2    27    20    1
     3    20    21   ar
     4    21    22   ar
     5    22    23   ar
     6    23    19    1
     7    19     1    1
     8     1     2   am
     9     2     3    2
    10     2    13    1
    11    13    14   ar
    12    14    15   ar
    13    15    16    1
    14    15    17   ar
    15    17    18   ar
    16     4     1    1
    17     4     5    1
    18     6     5    1
    19     6     7    1
    20     7     8    1
    21     8     9    1
    22    10     9    1
    23    10    11    1
    24    23    24   ar
    25    24    25   ar
    26    25    28    1
    27    28    29    1
    28    29    30    1
    29    30    31    1
    30    31    32    1
    31    32    33    1
    32    25    20   ar
    33    33    29    1
    34    18    13   ar
    35    11     4    1
    36    10     6    1
    37     8    12    1
@<TRIPOS>MOLECULE
*****
 33 37 0 0 0
SMALL
GASTEIGER

@<TRIPOS>ATOM
      1 N          62.2624   88.5881   12.1733 N.am    1  UNL1       -0.2723
      2 C          63.0698   87.4206   12.6582 C.2     1  UNL1        0.2685
      3 O          63.9198   87.5550   13.8869 O.2     1  UNL1       -0.2682
      4 C          61.4126   88.4536   10.9447 C.3     1  UNL1        0.0761
      5 C          60.4748   87.3231   10.6406 C.3     1  UNL1        0.0213
      6 C          59.8339   87.5969    9.3123 C.3     1  UNL1        0.0188
      7 C          58.8582   87.0673    8.3036 C.3     1  UNL1        0.0686
      8 N          58.7969   88.0399    7.1632 N.3     1  UNL1       -0.2975
      9 C          59.7346   89.1705    7.4672 C.3     1  UNL1        0.0686
     10 C          60.3755   88.8967    8.7955 C.3     1  UNL1        0.0188
     11 C          61.3512   89.4262    9.8043 C.3     1  UNL1        0.0213
     12 H          57.8464   88.3960    7.0628 H       1  UNL1        0.1232
     13 C          63.0274   86.1187   11.9144 C.ar    1  UNL1        0.1535
     14 C          62.9608   84.7529   12.5308 C.ar    1  UNL1        0.1012
     15 N          62.9364   83.7441   11.4210 N.ar    1  UNL1       -0.3057
     16 C          62.8718   82.2545   11.5847 C.3     1  UNL1        0.1321
     17 C          62.9878   84.4865   10.1186 C.ar    1  UNL1        0.1787
     18 N          63.0441   85.9541   10.4236 N.ar    1  UNL1       -0.2192
     19 C          62.3049   89.8900   12.9172 C.3     1  UNL1        0.1205
     20 C          66.2038   92.0872   13.3865 C.ar    1  UNL1        0.1724
     21 C          65.8408   90.9909   14.3438 C.ar    1  UNL1        0.0398
     22 C          64.5411   90.2585   14.1874 C.ar    1  UNL1        0.0007
     23 C          63.6045   90.6224   13.0736 C.ar    1  UNL1        0.0009
     24 C          63.9676   91.7187   12.1163 C.ar    1  UNL1        0.0374
     25 C          65.2672   92.4510   12.2728 C.ar    1  UNL1        0.1718
     26 C          68.1983   92.8389   14.8721 C.3     1  UNL1        0.2526
     27 O          67.5035   92.8196   13.5429 O.3     1  UNL1       -0.4684
     28 O          65.6303   93.5473   11.3155 O.3     1  UNL1       -0.4761
     29 C          66.7304   93.3378   10.3176 C.3     1  UNL1        0.1660
     30 C          67.6126   92.1286   10.2186 C.3     1  UNL1        0.0435
     31 C          68.5689   92.3442    9.0833 C.3     1  UNL1        0.0038
     32 C          68.2778   93.6866    8.4805 C.3     1  UNL1        0.0038
     33 C          67.1415   94.3006    9.2433 C.3     1  UNL1        0.0435
@<TRIPOS>BOND
     1    26    27    1
     2    27    20    1
     3    20    21   ar
     4    21    22   ar
     5    22    23   ar
     6    23    19    1
     7    19     1    1
     8     1     2   am
     9     2     3    2
    10     2    13    1
    11    13    14   ar
    12    14    15   ar
    13    15    16    1
    14    15    17   ar
    15    17    18   ar
    16     4     1    1
    17     4     5    1
    18     6     5    1
    19     6     7    1
    20     7     8    1
    21     8     9    1
    22    10     9    1
    23    10    11    1
    24    23    24   ar
    25    24    25   ar
    26    25    28    1
    27    28    29    1
    28    29    30    1
    29    30    31    1
    30    31    32    1
    31    32    33    1
    32    25    20   ar
    33    33    29    1
    34    18    13   ar
    35    11     4    1
    36    10     6    1
    37     8    12    1
@<TRIPOS>MOLECULE
*****
 33 37 0 0 0
SMALL
GASTEIGER

@<TRIPOS>ATOM
      1 N          64.1769   84.5152   14.0410 N.am    1  UNL1       -0.2723
      2 C          63.8803   83.2679   14.8195 C.2     1  UNL1        0.2685
      3 O          64.4978   83.0625   16.1710 O.2     1  UNL1       -0.2682
      4 C          63.5595   84.7205   12.6896 C.3     1  UNL1        0.0761
      5 C          62.3471   85.5519   12.3912 C.3     1  UNL1        0.0213
      6 C          62.0842   85.4757   10.9164 C.3     1  UNL1        0.0188
      7 C          61.1725   85.9424    9.8205 C.3     1  UNL1        0.0686
      8 N          61.6590   85.3524    8.5301 N.3     1  UNL1       -0.2975
      9 C          62.8714   84.5211    8.8284 C.3     1  UNL1        0.0686
     10 C          63.1342   84.5973   10.3032 C.3     1  UNL1        0.0188
     11 C          64.0459   84.1305   11.3991 C.3     1  UNL1        0.0213
     12 H          61.9026   86.0984    7.8785 H       1  UNL1        0.1232
     13 C          62.9661   82.2258   14.2465 C.ar    1  UNL1        0.1535
     14 C          61.5534   81.9602   14.6753 C.ar    1  UNL1        0.1012
     15 N          61.0183   80.8366   13.8379 N.ar    1  UNL1       -0.3057
     16 C          59.6428   80.2456   13.9305 C.3     1  UNL1        0.1321
     17 C          62.1003   80.4078   12.8916 C.ar    1  UNL1        0.1787
     18 N          63.3040   81.2664   13.1441 N.ar    1  UNL1       -0.2192
     19 C          65.0912   85.5573   14.6141 C.3     1  UNL1        0.1205
     20 C          63.4174   89.4890   16.0246 C.ar    1  UNL1        0.1724
     21 C          63.2429   88.2563   16.8611 C.ar    1  UNL1        0.0398
     22 C          63.8008   86.9457   16.3910 C.ar    1  UNL1        0.0007
     23 C          64.5333   86.8678   15.0842 C.ar    1  UNL1        0.0009
     24 C          64.7078   88.1007   14.2477 C.ar    1  UNL1        0.0374
     25 C          64.1498   89.4112   14.7179 C.ar    1  UNL1        0.1718
     26 C          63.7844   91.9340   16.8230 C.3     1  UNL1        0.2526
     27 O          62.8595   90.7997   16.4947 O.3     1  UNL1       -0.4684
     28 O          64.3243   90.6440   13.8814 O.3     1  UNL1       -0.4761
     29 C          63.7618   90.6933   12.4918 C.3     1  UNL1        0.1660
     30 C          62.6860   89.8030   11.9440 C.3     1  UNL1        0.0435
     31 C          62.4356   90.2010   10.5196 C.3     1  UNL1        0.0038
     32 C          63.3566   91.3373   10.1870 C.3     1  UNL1        0.0038
     33 C          64.1762   91.6416   11.4059 C.3     1  UNL1        0.0435
@<TRIPOS>BOND
     1    26    27    1
     2    27    20    1
     3    20    21   ar
     4    21    22   ar
     5    22    23   ar
     6    23    19    1
     7    19     1    1
     8     1     2   am
     9     2     3    2
    10     2    13    1
    11    13    14   ar
    12    14    15   ar
    13    15    16    1
    14    15    17   ar
    15    17    18   ar
    16     4     1    1
    17     4     5    1
    18     6     5    1
    19     6     7    1
    20     7     8    1
    21     8     9    1
    22    10     9    1
    23    10    11    1
    24    23    24   ar
    25    24    25   ar
    26    25    28    1
    27    28    29    1
    28    29    30    1
    29    30    31    1
    30    31    32    1
    31    32    33    1
    32    25    20   ar
    33    33    29    1
    34    18    13   ar
    35    11     4    1
    36    10     6    1
    37     8    12    1
@<TRIPOS>MOLECULE
*****
 33 37 0 0 0
SMALL
GASTEIGER

@<TRIPOS>ATOM
      1 N          62.2737   88.8602   11.9869 N.am    1  UNL1       -0.2723
      2 C          63.0635   87.7200   12.5578 C.2     1  UNL1        0.2685
      3 O          63.9454   87.9415   13.7508 O.2     1  UNL1       -0.2682
      4 C          61.3918   88.6387   10.7940 C.3     1  UNL1        0.0761
      5 C          61.2931   89.5314    9.5925 C.3     1  UNL1        0.0213
      6 C          60.2941   88.9299    8.6490 C.3     1  UNL1        0.0188
      7 C          59.6156   89.1100    7.3233 C.3     1  UNL1        0.0686
      8 N          58.6777   87.9568    7.1223 N.3     1  UNL1       -0.2975
      9 C          58.7764   87.0641    8.3237 C.3     1  UNL1        0.0686
     10 C          59.7754   87.6655    9.2673 C.3     1  UNL1        0.0188
     11 C          60.4538   87.4855   10.5929 C.3     1  UNL1        0.0213
     12 H          58.9405   87.4390    6.2838 H       1  UNL1        0.1232
     13 C          62.9715   86.3582   11.9358 C.ar    1  UNL1        0.1535
     14 C          62.9030   85.0543   12.6743 C.ar    1  UNL1        0.1012
     15 N          62.8209   83.9514   11.6609 N.ar    1  UNL1       -0.3057
     16 C          62.7360   82.4840   11.9598 C.3     1  UNL1        0.1321
     17 C          62.8387   84.5736   10.2962 C.ar    1  UNL1        0.1787
     18 N          62.9318   86.0610   10.4661 N.ar    1  UNL1       -0.2192
     19 C          62.3658   90.2221   12.6090 C.3     1  UNL1        0.1205
     20 C          66.3914   92.1008   13.3260 C.ar    1  UNL1        0.1724
     21 C          65.6195   91.5204   14.4737 C.ar    1  UNL1        0.0398
     22 C          64.2776   90.8942   14.2348 C.ar    1  UNL1        0.0007
     23 C          63.7076   90.8483   12.8480 C.ar    1  UNL1        0.0009
     24 C          64.4796   91.4287   11.7002 C.ar    1  UNL1        0.0374
     25 C          65.8214   92.0549   11.9393 C.ar    1  UNL1        0.1718
     26 C          68.1531   93.0926   14.9579 C.3     1  UNL1        0.2526
     27 O          67.7333   92.7270   13.5650 O.3     1  UNL1       -0.4684
     28 O          66.5934   92.6353   10.7916 O.3     1  UNL1       -0.4761
     29 C          66.6274   94.1206   10.5853 C.3     1  UNL1        0.1660
     30 C          66.0718   95.1536   11.5203 C.3     1  UNL1        0.0435
     31 C          66.3240   96.5051   10.9207 C.3     1  UNL1        0.0038
     32 C          67.0356   96.3076    9.6150 C.3     1  UNL1        0.0038
     33 C          67.2231   94.8338    9.4078 C.3     1  UNL1        0.0435
@<TRIPOS>BOND
     1    26    27    1
     2    27    20    1
     3    20    21   ar
     4    21    22   ar
     5    22    23   ar
     6    23    19    1
     7    19     1    1
     8     1     2   am
     9     2     3    2
    10     2    13    1
    11    13    14   ar
    12    14    15   ar
    13    15    16    1
    14    15    17   ar
    15    17    18   ar
    16     4     1    1
    17     4     5    1
    18     6     5    1
    19     6     7    1
    20     7     8    1
    21     8     9    1
    22    10     9    1
    23    10    11    1
    24    23    24   ar
    25    24    25   ar
    26    25    28    1
    27    28    29    1
    28    29    30    1
    29    30    31    1
    30    31    32    1
    31    32    33    1
    32    25    20   ar
    33    33    29    1
    34    18    13   ar
    35    11     4    1
    36    10     6    1
    37     8    12    1
