@<TRIPOS>MOLECULE
*****
 27 29 0 0 0
SMALL
GASTEIGER

@<TRIPOS>ATOM
      1 N          61.2445   86.6080    9.4260 N.am    1  UNL1       -0.2681
      2 C          61.6167   85.4731   10.3334 C.3     1  UNL1        0.1222
      3 C          62.3709   86.0401   11.4994 C.ar    1  UNL1        0.0196
      4 C          62.4649   87.5254   11.3127 C.ar    1  UNL1        0.1319
      5 N          63.1722   88.3664   12.3336 N.ar    1  UNL1       -0.2456
      6 C          63.7857   87.7221   13.5414 C.ar    1  UNL1        0.0568
      7 C          64.4930   88.5631   14.5623 C.3     1  UNL1        0.0518
      8 C          63.6917   86.2367   13.7281 C.ar    1  UNL1        0.0068
      9 C          62.9843   85.3957   12.7071 C.ar    1  UNL1       -0.0015
     10 C          61.7687   87.8764   10.0312 C.2     1  UNL1        0.2668
     11 O          61.6224   89.2540    9.4560 O.2     1  UNL1       -0.2683
     12 C          62.8904   83.9104   12.8939 C.ar    1  UNL1        0.0102
     13 C          62.0345   83.3447   13.9881 C.ar    1  UNL1        0.0017
     14 C          61.9406   81.8593   14.1749 C.ar    1  UNL1        0.0114
     15 C          62.7025   80.9396   13.2673 C.ar    1  UNL1        0.0585
     16 CL         62.6085   79.4543   13.4541 Cl      1  UNL1       -0.0822
     17 C          63.5584   81.5053   12.1730 C.ar    1  UNL1        0.0228
     18 C          63.6523   82.9907   11.9863 C.ar    1  UNL1        0.0585
     19 CL         64.5082   83.5563   10.8920 Cl      1  UNL1       -0.0822
     20 C          64.3051   85.5924   14.9358 C.3     1  UNL1        0.0934
     21 N          65.7244   85.1093   14.8886 N.3     1  UNL1       -0.3174
     22 H          65.7987   84.3368   14.2267 H       1  UNL1        0.1192
     23 H          66.0061   84.7908   15.8158 H       1  UNL1        0.1192
     24 C          60.4819   86.4945    8.1393 C.3     1  UNL1        0.1261
     25 C          59.0204   86.8297    8.1015 C.3     1  UNL1        0.1637
     26 C          59.3713   89.0959    6.8805 C.3     1  UNL1        0.1742
     27 O          58.5804   88.2360    7.8212 O.3     1  UNL1       -0.3493
@<TRIPOS>BOND
     1    26    27    1
     2    27    25    1
     3    25    24    1
     4    24     1    1
     5     1     2    1
     6     2     3    1
     7     3     4   ar
     8     4     5   ar
     9     5     6   ar
    10     6     7    1
    11     6     8   ar
    12     8    20    1
    13    20    21    1
    14     8     9   ar
    15     9    12    1
    16    12    13   ar
    17    13    14   ar
    18    14    15   ar
    19    15    16    1
    20    15    17   ar
    21    17    18   ar
    22    18    19    1
    23     4    10    1
    24    10    11    2
    25    10     1   am
    26     9     3   ar
    27    18    12   ar
    28    21    22    1
    29    21    23    1
@<TRIPOS>MOLECULE
*****
 27 29 0 0 0
SMALL
GASTEIGER

@<TRIPOS>ATOM
      1 N          61.0995   86.9407    9.7133 N.am    1  UNL1       -0.2681
      2 C          61.5499   85.8006   10.5777 C.3     1  UNL1        0.1222
      3 C          62.3844   86.3636   11.6899 C.ar    1  UNL1        0.0196
      4 C          62.4497   87.8516   11.5128 C.ar    1  UNL1        0.1319
      5 N          63.2238   88.6896   12.4867 N.ar    1  UNL1       -0.2456
      6 C          63.9327   88.0394   13.6378 C.ar    1  UNL1        0.0568
      7 C          64.7068   88.8774   14.6117 C.3     1  UNL1        0.0518
      8 C          63.8674   86.5514   13.8149 C.ar    1  UNL1        0.0068
      9 C          63.0932   85.7134   12.8409 C.ar    1  UNL1       -0.0015
     10 C          61.6556   88.2083   10.2912 C.2     1  UNL1        0.2668
     11 O          61.4531   89.5901    9.7437 O.2     1  UNL1       -0.2683
     12 C          63.0279   84.2253   13.0179 C.ar    1  UNL1        0.0102
     13 C          63.6832   83.3214   12.0162 C.ar    1  UNL1        0.0017
     14 C          63.6179   81.8333   12.1933 C.ar    1  UNL1        0.0114
     15 C          62.8973   81.2492   13.3721 C.ar    1  UNL1        0.0585
     16 CL         62.8321   79.7611   13.5491 Cl      1  UNL1       -0.0822
     17 C          62.2420   82.1531   14.3739 C.ar    1  UNL1        0.0228
     18 C          62.3073   83.6412   14.1968 C.ar    1  UNL1        0.0585
     19 CL         61.6521   84.5452   15.1985 Cl      1  UNL1       -0.0822
     20 C          64.5762   85.9012   14.9659 C.3     1  UNL1        0.0934
     21 N          65.8467   85.1395   14.7305 N.3     1  UNL1       -0.3174
     22 H          65.6487   84.3147   14.1641 H       1  UNL1        0.1192
     23 H          66.2407   84.8505   15.6259 H       1  UNL1        0.1192
     24 C          60.2433   86.8323    8.4865 C.3     1  UNL1        0.1261
     25 C          60.4123   85.6693    7.5544 C.3     1  UNL1        0.1637
     26 C          61.9676   84.3599    5.9369 C.3     1  UNL1        0.1742
     27 O          61.7868   85.2288    7.1462 O.3     1  UNL1       -0.3493
@<TRIPOS>BOND
     1    26    27    1
     2    27    25    1
     3    25    24    1
     4    24     1    1
     5     1     2    1
     6     2     3    1
     7     3     4   ar
     8     4     5   ar
     9     5     6   ar
    10     6     7    1
    11     6     8   ar
    12     8    20    1
    13    20    21    1
    14     8     9   ar
    15     9    12    1
    16    12    13   ar
    17    13    14   ar
    18    14    15   ar
    19    15    16    1
    20    15    17   ar
    21    17    18   ar
    22    18    19    1
    23     4    10    1
    24    10    11    2
    25    10     1   am
    26     9     3   ar
    27    18    12   ar
    28    21    22    1
    29    21    23    1
@<TRIPOS>MOLECULE
*****
 27 29 0 0 0
SMALL
GASTEIGER

@<TRIPOS>ATOM
      1 N          62.8680   90.4292   10.6014 N.am    1  UNL1       -0.2681
      2 C          63.8409   91.5535   10.4022 C.3     1  UNL1        0.1222
      3 C          64.4735   91.8593   11.7275 C.ar    1  UNL1        0.0196
      4 C          63.8917   90.9241   12.7457 C.ar    1  UNL1        0.1319
      5 N          64.3405   90.9981   14.1750 N.ar    1  UNL1       -0.2456
      6 C          65.3713   92.0073   14.5862 C.ar    1  UNL1        0.0568
      7 C          65.8202   92.0813   16.0155 C.3     1  UNL1        0.0518
      8 C          65.9532   92.9426   13.5680 C.ar    1  UNL1        0.0068
      9 C          65.5042   92.8685   12.1386 C.ar    1  UNL1       -0.0015
     10 C          62.8994   90.0403   12.0497 C.2     1  UNL1        0.2668
     11 O          62.0821   88.9575   12.6898 O.2     1  UNL1       -0.2683
     12 C          66.0861   93.8038   11.1203 C.ar    1  UNL1        0.0102
     13 C          65.5249   95.1860   10.9644 C.ar    1  UNL1        0.0017
     14 C          66.1068   96.1213    9.9462 C.ar    1  UNL1        0.0114
     15 C          67.2498   95.6742    9.0839 C.ar    1  UNL1        0.0585
     16 CL         67.8317   96.6095    8.0657 Cl      1  UNL1       -0.0822
     17 C          67.8110   94.2919    9.2398 C.ar    1  UNL1        0.0228
     18 C          67.2292   93.3567   10.2580 C.ar    1  UNL1        0.0585
     19 CL         67.7903   91.9744   10.4139 Cl      1  UNL1       -0.0822
     20 C          66.9839   93.9518   13.9791 C.3     1  UNL1        0.0934
     21 N          68.2851   93.4966   14.5702 N.3     1  UNL1       -0.3174
     22 H          68.1120   93.0524   15.4719 H       1  UNL1        0.1192
     23 H          68.8995   94.3005   14.6996 H       1  UNL1        0.1192
     24 C          62.0138   89.8038    9.5388 C.3     1  UNL1        0.1261
     25 C          60.5395   89.6400    9.7617 C.3     1  UNL1        0.1637
     26 C          59.0738   90.4470   11.7493 C.3     1  UNL1        0.1742
     27 O          59.7591   90.7241   10.4440 O.3     1  UNL1       -0.3493
@<TRIPOS>BOND
     1    26    27    1
     2    27    25    1
     3    25    24    1
     4    24     1    1
     5     1     2    1
     6     2     3    1
     7     3     4   ar
     8     4     5   ar
     9     5     6   ar
    10     6     7    1
    11     6     8   ar
    12     8    20    1
    13    20    21    1
    14     8     9   ar
    15     9    12    1
    16    12    13   ar
    17    13    14   ar
    18    14    15   ar
    19    15    16    1
    20    15    17   ar
    21    17    18   ar
    22    18    19    1
    23     4    10    1
    24    10    11    2
    25    10     1   am
    26     9     3   ar
    27    18    12   ar
    28    21    22    1
    29    21    23    1
@<TRIPOS>MOLECULE
*****
 27 29 0 0 0
SMALL
GASTEIGER

@<TRIPOS>ATOM
      1 N          63.5037   84.2467   13.5803 N.am    1  UNL1       -0.2681
      2 C          63.0472   84.5430   12.1826 C.3     1  UNL1        0.1222
      3 C          63.0140   86.0329   12.0117 C.ar    1  UNL1        0.0196
      4 C          63.4501   86.6574   13.3039 C.ar    1  UNL1        0.1319
      5 N          63.5153   88.1505   13.4309 N.ar    1  UNL1       -0.2456
      6 C          63.1444   89.0193   12.2656 C.ar    1  UNL1        0.0568
      7 C          63.2096   90.5124   12.3925 C.3     1  UNL1        0.0518
      8 C          62.7083   88.3947   10.9734 C.ar    1  UNL1        0.0068
      9 C          62.6431   86.9015   10.8465 C.ar    1  UNL1       -0.0015
     10 C          63.7528   85.5535   14.2733 C.2     1  UNL1        0.2668
     11 O          64.2221   85.7261   15.6875 O.2     1  UNL1       -0.2683
     12 C          62.2070   86.2770    9.5543 C.ar    1  UNL1        0.0102
     13 C          63.1999   85.5412    8.7041 C.ar    1  UNL1        0.0017
     14 C          62.7638   84.9167    7.4119 C.ar    1  UNL1        0.0114
     15 C          61.3348   85.0279    6.9699 C.ar    1  UNL1        0.0585
     16 CL         60.8987   84.4034    5.6777 Cl      1  UNL1       -0.0822
     17 C          60.3418   85.7637    7.8200 C.ar    1  UNL1        0.0228
     18 C          60.7779   86.3882    9.1122 C.ar    1  UNL1        0.0585
     19 CL         59.7850   87.1239    9.9623 Cl      1  UNL1       -0.0822
     20 C          62.3374   89.2634    9.8081 C.3     1  UNL1        0.0934
     21 N          61.1350   90.1563    9.8911 N.3     1  UNL1       -0.3174
     22 H          60.2917   89.5861    9.9542 H       1  UNL1        0.1192
     23 H          61.0880   90.7417    9.0572 H       1  UNL1        0.1192
     24 C          63.6802   82.8831   14.1798 C.3     1  UNL1        0.1261
     25 C          63.6497   81.6678   13.3011 C.3     1  UNL1        0.1637
     26 C          61.2269   81.0855   14.0367 C.3     1  UNL1        0.1742
     27 O          62.3548   80.9512   13.0568 O.3     1  UNL1       -0.3493
@<TRIPOS>BOND
     1    26    27    1
     2    27    25    1
     3    25    24    1
     4    24     1    1
     5     1     2    1
     6     2     3    1
     7     3     4   ar
     8     4     5   ar
     9     5     6   ar
    10     6     7    1
    11     6     8   ar
    12     8    20    1
    13    20    21    1
    14     8     9   ar
    15     9    12    1
    16    12    13   ar
    17    13    14   ar
    18    14    15   ar
    19    15    16    1
    20    15    17   ar
    21    17    18   ar
    22    18    19    1
    23     4    10    1
    24    10    11    2
    25    10     1   am
    26     9     3   ar
    27    18    12   ar
    28    21    22    1
    29    21    23    1
@<TRIPOS>MOLECULE
*****
 27 29 0 0 0
SMALL
GASTEIGER

@<TRIPOS>ATOM
      1 N          63.3218   84.2645   14.0552 N.am    1  UNL1       -0.2681
      2 C          62.7172   84.8482   12.8127 C.3     1  UNL1        0.1222
      3 C          63.0085   86.3196   12.8025 C.ar    1  UNL1        0.0196
      4 C          63.7932   86.6453   14.0387 C.ar    1  UNL1        0.1319
      5 N          64.2300   88.0563   14.2997 N.ar    1  UNL1       -0.2456
      6 C          63.8822   89.1417   13.3244 C.ar    1  UNL1        0.0568
      7 C          64.3190   90.5527   13.5854 C.3     1  UNL1        0.0518
      8 C          63.0975   88.8160   12.0882 C.ar    1  UNL1        0.0068
      9 C          62.6606   87.4049   11.8273 C.ar    1  UNL1       -0.0015
     10 C          63.9868   85.3752   14.8129 C.2     1  UNL1        0.2668
     11 O          64.7172   85.2396   16.1160 O.2     1  UNL1       -0.2683
     12 C          61.8759   87.0792   10.5911 C.ar    1  UNL1        0.0102
     13 C          62.5307   86.3449    9.4589 C.ar    1  UNL1        0.0017
     14 C          61.7460   86.0191    8.2227 C.ar    1  UNL1        0.0114
     15 C          60.3065   86.4277    8.1187 C.ar    1  UNL1        0.0585
     16 CL         59.5218   86.1020    6.8825 Cl      1  UNL1       -0.0822
     17 C          59.6517   87.1621    9.2510 C.ar    1  UNL1        0.0228
     18 C          60.4364   87.4878   10.4872 C.ar    1  UNL1        0.0585
     19 CL         59.7816   88.2221   11.6194 Cl      1  UNL1       -0.0822
     20 C          62.7496   89.9013   11.1130 C.3     1  UNL1        0.0934
     21 N          61.6643   90.8837   11.4400 N.3     1  UNL1       -0.3174
     22 H          60.7681   90.3987   11.4824 H       1  UNL1        0.1192
     23 H          61.6278   91.6029   10.7176 H       1  UNL1        0.1192
     24 C          63.2704   82.8232   14.4675 C.3     1  UNL1        0.1261
     25 C          61.9947   82.0473   14.3249 C.3     1  UNL1        0.1637
     26 C          62.8199   81.0255   12.0832 C.3     1  UNL1        0.1742
     27 O          61.8528   81.0320   13.2299 O.3     1  UNL1       -0.3493
@<TRIPOS>BOND
     1    26    27    1
     2    27    25    1
     3    25    24    1
     4    24     1    1
     5     1     2    1
     6     2     3    1
     7     3     4   ar
     8     4     5   ar
     9     5     6   ar
    10     6     7    1
    11     6     8   ar
    12     8    20    1
    13    20    21    1
    14     8     9   ar
    15     9    12    1
    16    12    13   ar
    17    13    14   ar
    18    14    15   ar
    19    15    16    1
    20    15    17   ar
    21    17    18   ar
    22    18    19    1
    23     4    10    1
    24    10    11    2
    25    10     1   am
    26     9     3   ar
    27    18    12   ar
    28    21    22    1
    29    21    23    1
@<TRIPOS>MOLECULE
*****
 27 29 0 0 0
SMALL
GASTEIGER

@<TRIPOS>ATOM
      1 N          66.6842   92.8234   14.6204 N.am    1  UNL1       -0.2681
      2 C          65.9285   91.5676   14.9398 C.3     1  UNL1        0.1222
      3 C          65.0560   91.2400   13.7645 C.ar    1  UNL1        0.0196
      4 C          65.2725   92.2932   12.7186 C.ar    1  UNL1        0.1319
      5 N          64.5254   92.2252   11.4198 N.ar    1  UNL1       -0.2456
      6 C          63.5617   91.1038   11.1667 C.ar    1  UNL1        0.0568
      7 C          62.8146   91.0358    9.8678 C.3     1  UNL1        0.0518
      8 C          63.3452   90.0506   12.2125 C.ar    1  UNL1        0.0068
      9 C          64.0924   90.1187   13.5115 C.ar    1  UNL1       -0.0015
     10 C          66.2788   93.2718   13.2476 C.2     1  UNL1        0.2668
     11 O          66.7899   94.4857   12.5298 O.2     1  UNL1       -0.2683
     12 C          63.8759   89.0654   14.5573 C.ar    1  UNL1        0.0102
     13 C          64.2093   87.6335   14.2600 C.ar    1  UNL1        0.0017
     14 C          63.9928   86.5803   15.3058 C.ar    1  UNL1        0.0114
     15 C          63.4429   86.9590   16.6490 C.ar    1  UNL1        0.0585
     16 CL         63.2264   85.9057   17.6949 Cl      1  UNL1       -0.0822
     17 C          63.1095   88.3909   16.9464 C.ar    1  UNL1        0.0228
     18 C          63.3260   89.4442   15.9006 C.ar    1  UNL1        0.0585
     19 CL         62.9926   90.8761   16.1979 Cl      1  UNL1       -0.0822
     20 C          62.3816   88.9293   11.9595 C.3     1  UNL1        0.0934
     21 N          60.9069   89.1600   12.1072 N.3     1  UNL1       -0.3174
     22 H          60.6895   89.3547   13.0846 H       1  UNL1        0.1192
     23 H          60.4006   88.3276   11.8056 H       1  UNL1        0.1192
     24 C          67.6719   93.5101   15.5164 C.3     1  UNL1        0.1261
     25 C          69.0803   93.0023   15.6087 C.3     1  UNL1        0.1637
     26 C          69.3953   91.7336   13.3633 C.3     1  UNL1        0.1742
     27 O          69.8702   92.7506   14.3586 O.3     1  UNL1       -0.3493
@<TRIPOS>BOND
     1    26    27    1
     2    27    25    1
     3    25    24    1
     4    24     1    1
     5     1     2    1
     6     2     3    1
     7     3     4   ar
     8     4     5   ar
     9     5     6   ar
    10     6     7    1
    11     6     8   ar
    12     8    20    1
    13    20    21    1
    14     8     9   ar
    15     9    12    1
    16    12    13   ar
    17    13    14   ar
    18    14    15   ar
    19    15    16    1
    20    15    17   ar
    21    17    18   ar
    22    18    19    1
    23     4    10    1
    24    10    11    2
    25    10     1   am
    26     9     3   ar
    27    18    12   ar
    28    21    22    1
    29    21    23    1
@<TRIPOS>MOLECULE
*****
 27 29 0 0 0
SMALL
GASTEIGER

@<TRIPOS>ATOM
      1 N          63.9361   90.5624   12.6787 N.am    1  UNL1       -0.2681
      2 C          63.2049   89.5831   11.8090 C.3     1  UNL1        0.1222
      3 C          63.2998   88.2312   12.4520 C.ar    1  UNL1        0.0196
      4 C          64.0897   88.3750   13.7190 C.ar    1  UNL1        0.1319
      5 N          64.3489   87.1754   14.5814 N.ar    1  UNL1       -0.2456
      6 C          63.8181   85.8320   14.1768 C.ar    1  UNL1        0.0568
      7 C          64.0773   84.6324   15.0393 C.3     1  UNL1        0.0518
      8 C          63.0282   85.6883   12.9098 C.ar    1  UNL1        0.0068
      9 C          62.7691   86.8879   12.0473 C.ar    1  UNL1       -0.0015
     10 C          64.4829   89.8157   13.8591 C.2     1  UNL1        0.2668
     11 O          65.2826   90.4061   14.9825 O.2     1  UNL1       -0.2683
     12 C          61.9792   86.7442   10.7803 C.ar    1  UNL1        0.0102
     13 C          62.5572   85.9939    9.6172 C.ar    1  UNL1        0.0017
     14 C          61.7673   85.8501    8.3501 C.ar    1  UNL1        0.0114
     15 C          60.3994   86.4567    8.2462 C.ar    1  UNL1        0.0585
     16 CL         59.6095   86.3129    6.9792 Cl      1  UNL1       -0.0822
     17 C          59.8213   87.2070    9.4094 C.ar    1  UNL1        0.0228
     18 C          60.6112   87.3507   10.6764 C.ar    1  UNL1        0.0585
     19 CL         60.0331   88.1010   11.8396 Cl      1  UNL1       -0.0822
     20 C          62.4975   84.3449   12.5052 C.3     1  UNL1        0.0934
     21 N          63.3932   83.3631   11.8098 N.3     1  UNL1       -0.3174
     22 H          63.6508   83.7281   10.8928 H       1  UNL1        0.1192
     23 H          62.9026   82.4760   11.6970 H       1  UNL1        0.1192
     24 C          64.0929   92.0306   12.4144 C.3     1  UNL1        0.1261
     25 C          65.4630   92.6347   12.3266 C.3     1  UNL1        0.1637
     26 C          66.7361   93.5646   14.3918 C.3     1  UNL1        0.1742
     27 O          65.8334   93.7858   13.2143 O.3     1  UNL1       -0.3493
@<TRIPOS>BOND
     1    26    27    1
     2    27    25    1
     3    25    24    1
     4    24     1    1
     5     1     2    1
     6     2     3    1
     7     3     4   ar
     8     4     5   ar
     9     5     6   ar
    10     6     7    1
    11     6     8   ar
    12     8    20    1
    13    20    21    1
    14     8     9   ar
    15     9    12    1
    16    12    13   ar
    17    13    14   ar
    18    14    15   ar
    19    15    16    1
    20    15    17   ar
    21    17    18   ar
    22    18    19    1
    23     4    10    1
    24    10    11    2
    25    10     1   am
    26     9     3   ar
    27    18    12   ar
    28    21    22    1
    29    21    23    1
@<TRIPOS>MOLECULE
*****
 27 29 0 0 0
SMALL
GASTEIGER

@<TRIPOS>ATOM
      1 N          63.2146   82.8264   13.1733 N.am    1  UNL1       -0.2681
      2 C          62.5978   83.7631   12.1772 C.3     1  UNL1        0.1222
      3 C          62.9643   85.1638   12.5693 C.ar    1  UNL1        0.0196
      4 C          63.8076   85.0929   13.8078 C.ar    1  UNL1        0.1319
      5 N          64.3256   86.3528   14.4356 N.ar    1  UNL1       -0.2456
      6 C          64.0004   87.6837   13.8249 C.ar    1  UNL1        0.0568
      7 C          64.5184   88.9436   14.4527 C.3     1  UNL1        0.0518
      8 C          63.1571   87.7547   12.5864 C.ar    1  UNL1        0.0068
      9 C          62.6391   86.4947   11.9586 C.ar    1  UNL1       -0.0015
     10 C          63.9623   83.6483   14.1811 C.2     1  UNL1        0.2668
     11 O          64.7299   83.1186   15.3559 O.2     1  UNL1       -0.2683
     12 C          61.7958   86.5656   10.7201 C.ar    1  UNL1        0.0102
     13 C          60.5050   87.3295   10.7344 C.ar    1  UNL1        0.0017
     14 C          59.6617   87.4005    9.4959 C.ar    1  UNL1        0.0114
     15 C          60.1092   86.7075    8.2431 C.ar    1  UNL1        0.0585
     16 CL         59.2659   86.7784    7.0047 Cl      1  UNL1       -0.0822
     17 C          61.4001   85.9435    8.2288 C.ar    1  UNL1        0.0228
     18 C          62.2433   85.8726    9.4673 C.ar    1  UNL1        0.0585
     19 CL         63.5341   85.1086    9.4530 Cl      1  UNL1       -0.0822
     20 C          62.8319   89.0855   11.9757 C.3     1  UNL1        0.0934
     21 N          61.8001   89.9700   12.6107 N.3     1  UNL1       -0.3174
     22 H          60.8847   89.5246   12.5468 H       1  UNL1        0.1192
     23 H          61.7764   90.8670   12.1257 H       1  UNL1        0.1192
     24 C          63.1033   81.3306   13.1634 C.3     1  UNL1        0.1261
     25 C          62.4180   80.6371   12.0236 C.3     1  UNL1        0.1637
     26 C          62.8634   79.4777    9.7416 C.3     1  UNL1        0.1742
     27 O          63.0334   80.6548   10.6558 O.3     1  UNL1       -0.3493
@<TRIPOS>BOND
     1    26    27    1
     2    27    25    1
     3    25    24    1
     4    24     1    1
     5     1     2    1
     6     2     3    1
     7     3     4   ar
     8     4     5   ar
     9     5     6   ar
    10     6     7    1
    11     6     8   ar
    12     8    20    1
    13    20    21    1
    14     8     9   ar
    15     9    12    1
    16    12    13   ar
    17    13    14   ar
    18    14    15   ar
    19    15    16    1
    20    15    17   ar
    21    17    18   ar
    22    18    19    1
    23     4    10    1
    24    10    11    2
    25    10     1   am
    26     9     3   ar
    27    18    12   ar
    28    21    22    1
    29    21    23    1
@<TRIPOS>MOLECULE
*****
 27 29 0 0 0
SMALL
GASTEIGER

@<TRIPOS>ATOM
      1 N          63.8662   85.4061   13.7845 N.am    1  UNL1       -0.2681
      2 C          64.1806   86.8520   14.0304 C.3     1  UNL1        0.1222
      3 C          63.5004   87.6618   12.9667 C.ar    1  UNL1        0.0196
      4 C          62.7655   86.7164   12.0633 C.ar    1  UNL1        0.1319
      5 N          61.9855   87.2470   10.8972 N.ar    1  UNL1       -0.2456
      6 C          61.9403   88.7232   10.6344 C.ar    1  UNL1        0.0568
      7 C          61.1602   89.2539    9.4683 C.3     1  UNL1        0.0518
      8 C          62.6751   89.6686   11.5378 C.ar    1  UNL1        0.0068
      9 C          63.4552   89.1379   12.7040 C.ar    1  UNL1       -0.0015
     10 C          62.9916   85.3223   12.5687 C.2     1  UNL1        0.2668
     11 O          62.4399   84.0651   11.9645 O.2     1  UNL1       -0.2683
     12 C          64.1900   90.0834   13.6074 C.ar    1  UNL1        0.0102
     13 C          65.4027   90.8100   13.1059 C.ar    1  UNL1        0.0017
     14 C          66.1375   91.7554   14.0093 C.ar    1  UNL1        0.0114
     15 C          65.6598   91.9742   15.4142 C.ar    1  UNL1        0.0585
     16 CL         66.3946   92.9197   16.3176 Cl      1  UNL1       -0.0822
     17 C          64.4471   91.2476   15.9158 C.ar    1  UNL1        0.0228
     18 C          63.7122   90.3022   15.0124 C.ar    1  UNL1        0.0585
     19 CL         62.4996   89.5756   15.5139 Cl      1  UNL1       -0.0822
     20 C          62.6299   91.1447   11.2751 C.3     1  UNL1        0.0934
     21 N          63.4620   91.7367   10.1764 N.3     1  UNL1       -0.3174
     22 H          64.4506   91.6343   10.4057 H       1  UNL1        0.1192
     23 H          63.2371   92.7265   10.0752 H       1  UNL1        0.1192
     24 C          64.3426   84.2475   14.6095 C.3     1  UNL1        0.1261
     25 C          63.3521   83.2806   15.1873 C.3     1  UNL1        0.1637
     26 C          63.8804   81.4503   13.4206 C.3     1  UNL1        0.1742
     27 O          63.3922   81.8359   14.7856 O.3     1  UNL1       -0.3493
@<TRIPOS>BOND
     1    26    27    1
     2    27    25    1
     3    25    24    1
     4    24     1    1
     5     1     2    1
     6     2     3    1
     7     3     4   ar
     8     4     5   ar
     9     5     6   ar
    10     6     7    1
    11     6     8   ar
    12     8    20    1
    13    20    21    1
    14     8     9   ar
    15     9    12    1
    16    12    13   ar
    17    13    14   ar
    18    14    15   ar
    19    15    16    1
    20    15    17   ar
    21    17    18   ar
    22    18    19    1
    23     4    10    1
    24    10    11    2
    25    10     1   am
    26     9     3   ar
    27    18    12   ar
    28    21    22    1
    29    21    23    1
