@<TRIPOS>MOLECULE
*****
 18 19 0 0 0
SMALL
GASTEIGER

@<TRIPOS>ATOM
      1 C          63.7980   83.1616   11.6758 C.ar    1  UNL1        0.1386
      2 C          63.8887   83.3911   10.1963 C.ar    1  UNL1        0.0369
      3 C          63.1900   84.5642    9.5751 C.ar    1  UNL1        0.0046
      4 C          62.4007   85.5076   10.4335 C.ar    1  UNL1        0.0173
      5 C          62.3100   85.2781   11.9130 C.ar    1  UNL1        0.0046
      6 C          63.0087   84.1050   12.5342 C.ar    1  UNL1        0.0369
      7 C          61.7020   86.6807    9.8123 C.ar    1  UNL1        0.0750
      8 C          60.6420   86.6158    8.7530 C.ar    1  UNL1        0.0349
      9 C          60.2255   88.0196    8.4274 C.ar    1  UNL1        0.0802
     10 C          59.1885   88.4205    7.4205 C.3     1  UNL1        0.0540
     11 N          61.0283   88.9521    9.2854 N.ar    1  UNL1       -0.1770
     12 N          61.9408   88.1246   10.1413 N.ar    1  UNL1       -0.2761
     13 H          62.5836   88.4687   10.8028 H       1  UNL1        0.1889
     14 O          64.4966   81.9885   12.2970 O.3     1  UNL1       -0.4755
     15 C          63.8617   81.2581   13.4430 C.3     1  UNL1        0.2054
     16 C          62.4932   80.6638   13.2876 C.3     1  UNL1        0.0473
     17 C          60.0509   80.4408   14.1454 C.3     1  UNL1        0.0001
     18 C          61.3501   81.1895   14.1044 C.3     1  UNL1        0.0038
@<TRIPOS>BOND
     1    17    18    1
     2    18    16    1
     3    16    15    1
     4    15    14    1
     5    14     1    1
     6     1     2   ar
     7     2     3   ar
     8     3     4   ar
     9     4     7    1
    10     7     8   ar
    11     8     9   ar
    12     9    10    1
    13     9    11   ar
    14    11    12   ar
    15     4     5   ar
    16     5     6   ar
    17     6     1   ar
    18    12     7   ar
    19    12    13    1
@<TRIPOS>MOLECULE
*****
 18 19 0 0 0
SMALL
GASTEIGER

@<TRIPOS>ATOM
      1 C          64.4909   91.6042   12.6322 C.ar    1  UNL1        0.1386
      2 C          64.3375   91.9981   11.1931 C.ar    1  UNL1        0.0369
      3 C          63.3966   91.2402   10.3041 C.ar    1  UNL1        0.0046
      4 C          62.6090   90.0883   10.8544 C.ar    1  UNL1        0.0173
      5 C          62.7624   89.6943   12.2936 C.ar    1  UNL1        0.0046
      6 C          63.7033   90.4523   13.1825 C.ar    1  UNL1        0.0369
      7 C          61.6681   89.3303    9.9655 C.ar    1  UNL1        0.0750
      8 C          61.7398   87.8655    9.6508 C.ar    1  UNL1        0.0349
      9 C          60.6063   87.5339    8.7260 C.ar    1  UNL1        0.0802
     10 C          60.2991   86.1801    8.1578 C.3     1  UNL1        0.0540
     11 N          59.8340   88.7939    8.4691 N.ar    1  UNL1       -0.1770
     12 N          60.4902   89.9041    9.2352 N.ar    1  UNL1       -0.2761
     13 H          60.1990   90.8443    9.2551 H       1  UNL1        0.1889
     14 O          65.4318   92.3622   13.5211 O.3     1  UNL1       -0.4755
     15 C          66.8635   91.9307   13.6391 C.3     1  UNL1        0.2054
     16 C          67.4466   91.6267   14.9873 C.3     1  UNL1        0.0473
     17 C          68.7510   93.6758   15.9092 C.3     1  UNL1        0.0001
     18 C          67.5985   92.7203   16.0027 C.3     1  UNL1        0.0038
@<TRIPOS>BOND
     1    17    18    1
     2    18    16    1
     3    16    15    1
     4    15    14    1
     5    14     1    1
     6     1     2   ar
     7     2     3   ar
     8     3     4   ar
     9     4     7    1
    10     7     8   ar
    11     8     9   ar
    12     9    10    1
    13     9    11   ar
    14    11    12   ar
    15     4     5   ar
    16     5     6   ar
    17     6     1   ar
    18    12     7   ar
    19    12    13    1
@<TRIPOS>MOLECULE
*****
 18 19 0 0 0
SMALL
GASTEIGER

@<TRIPOS>ATOM
      1 C          62.2500   89.6031   10.6478 C.ar    1  UNL1        0.1386
      2 C          62.6285   89.1624   12.0307 C.ar    1  UNL1        0.0369
      3 C          63.6254   89.9543   12.8238 C.ar    1  UNL1        0.0046
      4 C          64.2439   91.1870   12.2339 C.ar    1  UNL1        0.0173
      5 C          63.8654   91.6277   10.8510 C.ar    1  UNL1        0.0046
      6 C          62.8685   90.8358   10.0580 C.ar    1  UNL1        0.0369
      7 C          65.2409   91.9789   13.0270 C.ar    1  UNL1        0.0750
      8 C          65.7438   91.6416   14.3993 C.ar    1  UNL1        0.0349
      9 C          66.7237   92.7014   14.8074 C.ar    1  UNL1        0.0802
     10 C          67.4699   92.7587   16.1073 C.3     1  UNL1        0.0540
     11 N          66.8264   93.6938   13.6873 N.ar    1  UNL1       -0.1770
     12 N          65.9100   93.2473   12.5870 N.ar    1  UNL1       -0.2761
     13 H          65.7718   93.7061   11.7269 H       1  UNL1        0.1889
     14 O          61.2530   88.8112    9.8548 O.3     1  UNL1       -0.4755
     15 C          60.7040   87.5291   10.4067 C.3     1  UNL1        0.2054
     16 C          61.3056   86.2176    9.9968 C.3     1  UNL1        0.0473
     17 C          63.0929   85.2212    8.3958 C.3     1  UNL1        0.0001
     18 C          61.8591   86.0461    8.6132 C.3     1  UNL1        0.0038
@<TRIPOS>BOND
     1    17    18    1
     2    18    16    1
     3    16    15    1
     4    15    14    1
     5    14     1    1
     6     1     2   ar
     7     2     3   ar
     8     3     4   ar
     9     4     7    1
    10     7     8   ar
    11     8     9   ar
    12     9    10    1
    13     9    11   ar
    14    11    12   ar
    15     4     5   ar
    16     5     6   ar
    17     6     1   ar
    18    12     7   ar
    19    12    13    1
@<TRIPOS>MOLECULE
*****
 18 19 0 0 0
SMALL
GASTEIGER

@<TRIPOS>ATOM
      1 C          64.8601   92.2324   11.4659 C.ar    1  UNL1        0.1386
      2 C          65.6016   92.2441   12.7697 C.ar    1  UNL1        0.0369
      3 C          65.2625   91.2436   13.8345 C.ar    1  UNL1        0.0046
      4 C          64.1818   90.2312   13.5955 C.ar    1  UNL1        0.0173
      5 C          63.4403   90.2194   12.2917 C.ar    1  UNL1        0.0046
      6 C          63.7794   91.2200   11.2269 C.ar    1  UNL1        0.0369
      7 C          63.8426   89.2306   14.6603 C.ar    1  UNL1        0.0750
      8 C          64.2461   87.7859   14.6733 C.ar    1  UNL1        0.0349
      9 C          63.6933   87.1615   15.9201 C.ar    1  UNL1        0.0802
     10 C          63.8569   85.7297   16.3362 C.3     1  UNL1        0.0540
     11 N          62.9481   88.2202   16.6776 N.ar    1  UNL1       -0.1770
     12 N          63.0404   89.4989   15.8990 N.ar    1  UNL1       -0.2761
     13 H          62.6441   90.3627   16.1559 H       1  UNL1        0.1889
     14 O          65.1993   93.2330   10.4011 O.3     1  UNL1       -0.4755
     15 C          66.0652   94.4130   10.7293 C.3     1  UNL1        0.2054
     16 C          67.3926   94.5808   10.0513 C.3     1  UNL1        0.0473
     17 C          68.5109   92.3104    9.4641 C.3     1  UNL1        0.0001
     18 C          67.8438   93.5812    9.0279 C.3     1  UNL1        0.0038
@<TRIPOS>BOND
     1    17    18    1
     2    18    16    1
     3    16    15    1
     4    15    14    1
     5    14     1    1
     6     1     2   ar
     7     2     3   ar
     8     3     4   ar
     9     4     7    1
    10     7     8   ar
    11     8     9   ar
    12     9    10    1
    13     9    11   ar
    14    11    12   ar
    15     4     5   ar
    16     5     6   ar
    17     6     1   ar
    18    12     7   ar
    19    12    13    1
@<TRIPOS>MOLECULE
*****
 18 19 0 0 0
SMALL
GASTEIGER

@<TRIPOS>ATOM
      1 C          65.8505   92.7446   12.7627 C.ar    1  UNL1        0.1386
      2 C          64.6508   92.0313   12.2132 C.ar    1  UNL1        0.0369
      3 C          64.1143   90.8176   12.9126 C.ar    1  UNL1        0.0046
      4 C          64.7775   90.3171   14.1614 C.ar    1  UNL1        0.0173
      5 C          65.9772   91.0303   14.7109 C.ar    1  UNL1        0.0046
      6 C          66.5137   92.2441   14.0116 C.ar    1  UNL1        0.0369
      7 C          64.2410   89.1034   14.8607 C.ar    1  UNL1        0.0750
      8 C          63.5838   89.0810   16.2089 C.ar    1  UNL1        0.0349
      9 C          63.2042   87.6627   16.5160 C.ar    1  UNL1        0.0802
     10 C          62.5218   87.1829   17.7627 C.3     1  UNL1        0.0540
     11 N          63.6268   86.8085   15.3577 N.ar    1  UNL1       -0.1770
     12 N          64.2676   87.6989   14.3346 N.ar    1  UNL1       -0.2761
     13 H          64.6402   87.4119   13.4697 H       1  UNL1        0.1889
     14 O          66.3869   93.9583   12.0634 O.3     1  UNL1       -0.4755
     15 C          66.1170   94.1625   10.6021 C.3     1  UNL1        0.2054
     16 C          67.2456   94.4883    9.6693 C.3     1  UNL1        0.0473
     17 C          68.3314   92.1315    9.7986 C.3     1  UNL1        0.0001
     18 C          68.0316   93.3832    9.0282 C.3     1  UNL1        0.0038
@<TRIPOS>BOND
     1    17    18    1
     2    18    16    1
     3    16    15    1
     4    15    14    1
     5    14     1    1
     6     1     2   ar
     7     2     3   ar
     8     3     4   ar
     9     4     7    1
    10     7     8   ar
    11     8     9   ar
    12     9    10    1
    13     9    11   ar
    14    11    12   ar
    15     4     5   ar
    16     5     6   ar
    17     6     1   ar
    18    12     7   ar
    19    12    13    1
@<TRIPOS>MOLECULE
*****
 18 19 0 0 0
SMALL
GASTEIGER

@<TRIPOS>ATOM
      1 C          65.1799   92.6619   11.7695 C.ar    1  UNL1        0.1386
      2 C          64.8590   91.7254   12.8964 C.ar    1  UNL1        0.0369
      3 C          63.8681   90.6180   12.6922 C.ar    1  UNL1        0.0046
      4 C          63.1981   90.4470   11.3611 C.ar    1  UNL1        0.0173
      5 C          63.5190   91.3835   10.2342 C.ar    1  UNL1        0.0046
      6 C          64.5099   92.4910   10.4384 C.ar    1  UNL1        0.0369
      7 C          62.2073   89.3396   11.1569 C.ar    1  UNL1        0.0750
      8 C          62.1794   88.3833   10.0016 C.ar    1  UNL1        0.0349
      9 C          61.0252   87.4466   10.2028 C.ar    1  UNL1        0.0802
     10 C          60.6265   86.3289    9.2854 C.3     1  UNL1        0.0540
     11 N          60.3397   87.8240   11.4825 N.ar    1  UNL1       -0.1770
     12 N          61.0702   88.9939   12.0721 N.ar    1  UNL1       -0.2761
     13 H          60.8433   89.4541   12.9123 H       1  UNL1        0.1889
     14 O          66.1708   93.7694   11.9737 O.3     1  UNL1       -0.4755
     15 C          66.2616   94.8875   10.9780 C.3     1  UNL1        0.2054
     16 C          67.4309   94.9648   10.0415 C.3     1  UNL1        0.0473
     17 C          68.3042   92.6092    9.3794 C.3     1  UNL1        0.0001
     18 C          67.6344   93.8984    9.0064 C.3     1  UNL1        0.0038
@<TRIPOS>BOND
     1    17    18    1
     2    18    16    1
     3    16    15    1
     4    15    14    1
     5    14     1    1
     6     1     2   ar
     7     2     3   ar
     8     3     4   ar
     9     4     7    1
    10     7     8   ar
    11     8     9   ar
    12     9    10    1
    13     9    11   ar
    14    11    12   ar
    15     4     5   ar
    16     5     6   ar
    17     6     1   ar
    18    12     7   ar
    19    12    13    1
@<TRIPOS>MOLECULE
*****
 18 19 0 0 0
SMALL
GASTEIGER

@<TRIPOS>ATOM
      1 C          64.7001   91.4202   13.6709 C.ar    1  UNL1        0.1386
      2 C          64.6063   90.0833   14.3445 C.ar    1  UNL1        0.0369
      3 C          63.8937   88.9505   13.6670 C.ar    1  UNL1        0.0046
      4 C          63.2749   89.1547   12.3159 C.ar    1  UNL1        0.0173
      5 C          63.3687   90.4917   11.6424 C.ar    1  UNL1        0.0046
      6 C          64.0814   91.6244   12.3199 C.ar    1  UNL1        0.0369
      7 C          62.5623   88.0220   11.6384 C.ar    1  UNL1        0.0750
      8 C          61.7700   88.1127   10.3680 C.ar    1  UNL1        0.0349
      9 C          61.2348   86.7464   10.0567 C.ar    1  UNL1        0.0802
     10 C          60.3870   86.3797    8.8749 C.3     1  UNL1        0.0540
     11 N          61.6964   85.8112   11.1349 N.ar    1  UNL1       -0.1770
     12 N          62.5167   86.5996   12.1124 N.ar    1  UNL1       -0.2761
     13 H          62.9494   86.2455   12.9228 H       1  UNL1        0.1889
     14 O          65.4128   92.5530   14.3485 O.3     1  UNL1       -0.4755
     15 C          66.2888   92.2847   15.5361 C.3     1  UNL1        0.2054
     16 C          67.6769   91.7515   15.3391 C.3     1  UNL1        0.0473
     17 C          68.7590   94.0014   16.0579 C.3     1  UNL1        0.0001
     18 C          68.8558   92.5174   15.8621 C.3     1  UNL1        0.0038
@<TRIPOS>BOND
     1    17    18    1
     2    18    16    1
     3    16    15    1
     4    15    14    1
     5    14     1    1
     6     1     2   ar
     7     2     3   ar
     8     3     4   ar
     9     4     7    1
    10     7     8   ar
    11     8     9   ar
    12     9    10    1
    13     9    11   ar
    14    11    12   ar
    15     4     5   ar
    16     5     6   ar
    17     6     1   ar
    18    12     7   ar
    19    12    13    1
@<TRIPOS>MOLECULE
*****
 18 19 0 0 0
SMALL
GASTEIGER

@<TRIPOS>ATOM
      1 C          65.7976   92.0939   12.6188 C.ar    1  UNL1        0.1386
      2 C          65.1935   91.1568   13.6223 C.ar    1  UNL1        0.0369
      3 C          63.9526   90.3876   13.2781 C.ar    1  UNL1        0.0046
      4 C          63.3157   90.5555   11.9305 C.ar    1  UNL1        0.0173
      5 C          63.9197   91.4926   10.9270 C.ar    1  UNL1        0.0046
      6 C          65.1607   92.2618   11.2712 C.ar    1  UNL1        0.0369
      7 C          62.0747   89.7864   11.5863 C.ar    1  UNL1        0.0750
      8 C          61.8540   88.9804   10.3407 C.ar    1  UNL1        0.0349
      9 C          60.4794   88.3840   10.4119 C.ar    1  UNL1        0.0802
     10 C          59.8451   87.5047    9.3754 C.3     1  UNL1        0.0540
     11 N          59.8506   88.8215   11.7016 N.ar    1  UNL1       -0.1770
     12 N          60.8366   89.6882   12.4274 N.ar    1  UNL1       -0.2761
     13 H          60.6958   90.1172   13.3022 H       1  UNL1        0.1889
     14 O          67.0385   92.8630   12.9629 O.3     1  UNL1       -0.4755
     15 C          68.2058   92.1612   13.5913 C.3     1  UNL1        0.2054
     16 C          68.7657   92.6545   14.8925 C.3     1  UNL1        0.0473
     17 C          66.6419   92.6945   16.3884 C.3     1  UNL1        0.0001
     18 C          68.0782   92.3148   16.1817 C.3     1  UNL1        0.0038
@<TRIPOS>BOND
     1    17    18    1
     2    18    16    1
     3    16    15    1
     4    15    14    1
     5    14     1    1
     6     1     2   ar
     7     2     3   ar
     8     3     4   ar
     9     4     7    1
    10     7     8   ar
    11     8     9   ar
    12     9    10    1
    13     9    11   ar
    14    11    12   ar
    15     4     5   ar
    16     5     6   ar
    17     6     1   ar
    18    12     7   ar
    19    12    13    1
@<TRIPOS>MOLECULE
*****
 18 19 0 0 0
SMALL
GASTEIGER

@<TRIPOS>ATOM
      1 C          64.1774   89.9080   13.9086 C.ar    1  UNL1        0.1386
      2 C          63.5737   90.2751   12.5855 C.ar    1  UNL1        0.0369
      3 C          64.1343   91.4217   11.7974 C.ar    1  UNL1        0.0046
      4 C          65.2987   92.2013   12.3325 C.ar    1  UNL1        0.0173
      5 C          65.9025   91.8342   13.6557 C.ar    1  UNL1        0.0046
      6 C          65.3418   90.6876   14.4437 C.ar    1  UNL1        0.0369
      7 C          65.8593   93.3479   11.5445 C.ar    1  UNL1        0.0750
      8 C          66.3741   93.2824   10.1371 C.ar    1  UNL1        0.0349
      9 C          66.8366   94.6553    9.7483 C.ar    1  UNL1        0.0802
     10 C          67.4247   95.0456    8.4248 C.3     1  UNL1        0.0540
     11 N          66.6076   95.5694   10.9154 N.ar    1  UNL1       -0.1770
     12 N          66.0036   94.7613   12.0255 N.ar    1  UNL1       -0.2761
     13 H          65.7470   95.0993   12.9138 H       1  UNL1        0.1889
     14 O          63.6168   88.7614   14.6966 O.3     1  UNL1       -0.4755
     15 C          64.4271   87.5132   14.8845 C.3     1  UNL1        0.2054
     16 C          64.1041   86.2827   14.0899 C.3     1  UNL1        0.0473
     17 C          64.5338   83.7658   13.6093 C.3     1  UNL1        0.0001
     18 C          64.6292   84.9476   14.5281 C.3     1  UNL1        0.0038
@<TRIPOS>BOND
     1    17    18    1
     2    18    16    1
     3    16    15    1
     4    15    14    1
     5    14     1    1
     6     1     2   ar
     7     2     3   ar
     8     3     4   ar
     9     4     7    1
    10     7     8   ar
    11     8     9   ar
    12     9    10    1
    13     9    11   ar
    14    11    12   ar
    15     4     5   ar
    16     5     6   ar
    17     6     1   ar
    18    12     7   ar
    19    12    13    1
