@<TRIPOS>MOLECULE
*****
 34 37 0 0 0
SMALL
GASTEIGER

@<TRIPOS>ATOM
      1 N          62.9778   90.8097   11.6720 N.am    1  UNL1       -0.2438
      2 C          63.5436   91.3940   10.4117 C.3     1  UNL1        0.1009
      3 C          64.7320   92.3070   10.4758 C.3     1  UNL1        0.0661
      4 C          65.3546   92.6356   11.8003 C.3     1  UNL1        0.1578
      5 O          64.7889   92.0513   13.0607 O.3     1  UNL1       -0.4375
      6 C          63.6005   91.1383   12.9965 C.2     1  UNL1        0.4051
      7 O          63.0347   90.5539   14.2568 O.2     1  UNL1       -0.2262
      8 C          66.2439   93.4300   10.8902 C.ar    1  UNL1        0.0137
      9 C          67.3348   92.7446   10.1219 C.ar    1  UNL1       -0.0010
     10 C          68.2241   93.5390    9.2118 C.ar    1  UNL1       -0.0002
     11 C          68.0224   95.0185    9.0700 C.ar    1  UNL1       -0.0000
     12 C          66.9315   95.7039    9.8383 C.ar    1  UNL1       -0.0002
     13 C          66.0422   94.9096   10.7484 C.ar    1  UNL1       -0.0010
     14 C          60.4057   90.4708   11.5319 C.3     1  UNL1        0.0265
     15 C          61.7894   89.8967   11.6078 C.3     1  UNL1        0.1011
     16 C          61.9847   88.4094   11.6196 C.ar    1  UNL1       -0.0042
     17 C          63.0786   87.8032   12.4477 C.ar    1  UNL1       -0.0026
     18 C          63.2739   86.3160   12.4595 C.ar    1  UNL1        0.0013
     19 C          62.3752   85.4351   11.6432 C.ar    1  UNL1        0.0193
     20 C          61.2812   86.0413   10.8151 C.ar    1  UNL1        0.0013
     21 C          61.0860   87.5285   10.8033 C.ar    1  UNL1       -0.0026
     22 C          62.5705   83.9479   11.6550 C.ar    1  UNL1        0.1011
     23 C          63.3123   83.2799   10.5354 C.ar    1  UNL1        0.0258
     24 C          63.5076   81.7927   10.5472 C.ar    1  UNL1        0.0638
     25 C          62.9610   80.9735   11.6786 C.ar    1  UNL1        0.2765
     26 O          63.1563   79.4863   11.6905 O.2     1  UNL1       -0.2655
     27 N          62.2191   81.6415   12.7982 N.ar    1  UNL1       -0.2146
     28 C          61.6725   80.8222   13.9297 C.3     1  UNL1        0.1571
     29 N          62.0239   83.1286   12.7864 N.ar    1  UNL1       -0.1668
     30 C          66.2861   93.2402   12.8088 C.3     1  UNL1        0.0471
     31 C          66.6793   92.4607   14.0284 C.3     1  UNL1        0.0357
     32 C          68.1201   92.1182   14.2675 C.3     1  UNL1        0.1373
     33 O          68.9811   91.6604   13.1278 O.3     1  UNL1       -0.3820
     34 H          68.6618   90.8031   12.8054 H       1  UNL1        0.2104
@<TRIPOS>BOND
     1    15    14    1
     2    15    16    1
     3    16    17   ar
     4    17    18   ar
     5    18    19   ar
     6    19    22    1
     7    22    23   ar
     8    23    24   ar
     9    24    25   ar
    10    25    26    2
    11    25    27   ar
    12    27    28    1
    13    27    29   ar
    14    19    20   ar
    15    20    21   ar
    16    15     1    1
    17     1     2    1
    18     2     3    1
    19     3     4    1
    20     4    30    1
    21    30    31    1
    22    31    32    1
    23    32    33    1
    24     4     8    1
    25     8     9   ar
    26     9    10   ar
    27    10    11   ar
    28    11    12   ar
    29    12    13   ar
    30     4     5    1
    31     5     6    1
    32     6     7    2
    33    21    16   ar
    34     6     1   am
    35    29    22   ar
    36    13     8   ar
    37    33    34    1
@<TRIPOS>MOLECULE
*****
 34 37 0 0 0
SMALL
GASTEIGER

@<TRIPOS>ATOM
      1 N          63.3868   90.5883   11.9935 N.am    1  UNL1       -0.2438
      2 C          64.1203   90.5006   13.2990 C.3     1  UNL1        0.1009
      3 C          65.3402   91.3418   13.5318 C.3     1  UNL1        0.0661
      4 C          65.8267   92.2706   12.4592 C.3     1  UNL1        0.1578
      5 O          65.0932   92.3584   11.1536 O.3     1  UNL1       -0.4375
      6 C          63.8733   91.5172   10.9208 C.2     1  UNL1        0.4051
      7 O          63.1398   91.6049    9.6153 O.2     1  UNL1       -0.2262
      8 C          66.8529   92.5377   13.5201 C.ar    1  UNL1        0.0137
      9 C          68.1597   91.8015   13.5018 C.ar    1  UNL1       -0.0010
     10 C          69.1860   92.0686   14.5628 C.ar    1  UNL1       -0.0002
     11 C          68.9053   93.0719   15.6420 C.ar    1  UNL1       -0.0000
     12 C          67.5985   93.8081   15.6603 C.ar    1  UNL1       -0.0002
     13 C          66.5723   93.5410   14.5993 C.ar    1  UNL1       -0.0010
     14 C          60.8396   90.4021   11.5170 C.3     1  UNL1        0.0265
     15 C          62.1669   89.7472   11.7607 C.3     1  UNL1        0.1011
     16 C          62.2742   88.2510   11.7714 C.ar    1  UNL1       -0.0042
     17 C          61.4064   87.4303   10.8642 C.ar    1  UNL1       -0.0026
     18 C          61.5138   85.9342   10.8750 C.ar    1  UNL1        0.0013
     19 C          62.4890   85.2589   11.7931 C.ar    1  UNL1        0.0193
     20 C          63.3568   86.0796   12.7004 C.ar    1  UNL1        0.0013
     21 C          63.2495   87.5757   12.6895 C.ar    1  UNL1       -0.0026
     22 C          62.5964   83.7627   11.8039 C.ar    1  UNL1        0.1011
     23 C          63.2654   83.0506   10.6659 C.ar    1  UNL1        0.0258
     24 C          63.3728   81.5544   10.6766 C.ar    1  UNL1        0.0638
     25 C          62.8111   80.7704   11.8255 C.ar    1  UNL1        0.2765
     26 O          62.9184   79.2744   11.8364 O.2     1  UNL1       -0.2655
     27 N          62.1420   81.4827   12.9636 N.ar    1  UNL1       -0.2146
     28 C          61.5803   80.6987   14.1125 C.3     1  UNL1        0.1571
     29 N          62.0347   82.9788   12.9528 N.ar    1  UNL1       -0.1668
     30 C          66.6696   93.2923   11.7550 C.3     1  UNL1        0.0471
     31 C          66.9574   93.1463   10.2901 C.3     1  UNL1        0.0357
     32 C          68.1907   92.4230    9.8365 C.3     1  UNL1        0.1373
     33 O          69.5109   93.1346    9.8112 O.3     1  UNL1       -0.3820
     34 H          69.4843   93.8419    9.1480 H       1  UNL1        0.2104
@<TRIPOS>BOND
     1    15    14    1
     2    15    16    1
     3    16    17   ar
     4    17    18   ar
     5    18    19   ar
     6    19    22    1
     7    22    23   ar
     8    23    24   ar
     9    24    25   ar
    10    25    26    2
    11    25    27   ar
    12    27    28    1
    13    27    29   ar
    14    19    20   ar
    15    20    21   ar
    16    15     1    1
    17     1     2    1
    18     2     3    1
    19     3     4    1
    20     4    30    1
    21    30    31    1
    22    31    32    1
    23    32    33    1
    24     4     8    1
    25     8     9   ar
    26     9    10   ar
    27    10    11   ar
    28    11    12   ar
    29    12    13   ar
    30     4     5    1
    31     5     6    1
    32     6     7    2
    33    21    16   ar
    34     6     1   am
    35    29    22   ar
    36    13     8   ar
    37    33    34    1
@<TRIPOS>MOLECULE
*****
 34 37 0 0 0
SMALL
GASTEIGER

@<TRIPOS>ATOM
      1 N          63.4296   90.4045   11.8509 N.am    1  UNL1       -0.2438
      2 C          64.0923   90.1399   13.1703 C.3     1  UNL1        0.1009
      3 C          65.2041   91.0290   13.6429 C.3     1  UNL1        0.0661
      4 C          65.6533   92.1827   12.7961 C.3     1  UNL1        0.1578
      5 O          64.9906   92.4474   11.4766 O.3     1  UNL1       -0.4375
      6 C          63.8788   91.5583   11.0040 C.2     1  UNL1        0.4051
      7 O          63.2161   91.8229    9.6847 O.2     1  UNL1       -0.2262
      8 C          66.5842   92.3374   13.9620 C.ar    1  UNL1        0.0137
      9 C          66.0346   92.6273   15.3273 C.ar    1  UNL1       -0.0010
     10 C          66.9656   92.7820   16.4932 C.ar    1  UNL1       -0.0002
     11 C          68.4461   92.6469   16.2938 C.ar    1  UNL1       -0.0000
     12 C          68.9957   92.3570   14.9286 C.ar    1  UNL1       -0.0002
     13 C          68.0648   92.2023   13.7626 C.ar    1  UNL1       -0.0010
     14 C          61.1376   90.1051   10.6649 C.3     1  UNL1        0.0265
     15 C          62.3178   89.5154   11.3784 C.3     1  UNL1        0.1011
     16 C          62.3863   88.0364   11.6193 C.ar    1  UNL1       -0.0042
     17 C          63.2510   87.4949   12.7188 C.ar    1  UNL1       -0.0026
     18 C          63.3194   86.0159   12.9598 C.ar    1  UNL1        0.0013
     19 C          62.5231   85.0785   12.1012 C.ar    1  UNL1        0.0193
     20 C          61.6584   85.6200   11.0016 C.ar    1  UNL1        0.0013
     21 C          61.5900   87.0990   10.7607 C.ar    1  UNL1       -0.0026
     22 C          62.5916   83.5996   12.3421 C.ar    1  UNL1        0.1011
     23 C          62.4370   83.0582   13.7324 C.ar    1  UNL1        0.0258
     24 C          62.5055   81.5792   13.9734 C.ar    1  UNL1        0.0638
     25 C          62.7286   80.6416   12.8240 C.ar    1  UNL1        0.2765
     26 O          62.7970   79.1627   13.0649 O.2     1  UNL1       -0.2655
     27 N          62.8832   81.1830   11.4336 N.ar    1  UNL1       -0.2146
     28 C          63.1063   80.2455   10.2842 C.3     1  UNL1        0.1571
     29 N          62.8147   82.6620   11.1927 N.ar    1  UNL1       -0.1668
     30 C          66.4257   93.3902   12.3541 C.3     1  UNL1        0.0471
     31 C          66.1435   94.0140   11.0196 C.3     1  UNL1        0.0357
     32 C          66.2737   95.4979   10.8426 C.3     1  UNL1        0.1373
     33 O          65.8525   96.4243   11.9446 O.3     1  UNL1       -0.3820
     34 H          64.8932   96.3596   12.0725 H       1  UNL1        0.2104
@<TRIPOS>BOND
     1    15    14    1
     2    15    16    1
     3    16    17   ar
     4    17    18   ar
     5    18    19   ar
     6    19    22    1
     7    22    23   ar
     8    23    24   ar
     9    24    25   ar
    10    25    26    2
    11    25    27   ar
    12    27    28    1
    13    27    29   ar
    14    19    20   ar
    15    20    21   ar
    16    15     1    1
    17     1     2    1
    18     2     3    1
    19     3     4    1
    20     4    30    1
    21    30    31    1
    22    31    32    1
    23    32    33    1
    24     4     8    1
    25     8     9   ar
    26     9    10   ar
    27    10    11   ar
    28    11    12   ar
    29    12    13   ar
    30     4     5    1
    31     5     6    1
    32     6     7    2
    33    21    16   ar
    34     6     1   am
    35    29    22   ar
    36    13     8   ar
    37    33    34    1
