@<TRIPOS>MOLECULE
*****
 30 32 0 0 0
SMALL
GASTEIGER

@<TRIPOS>ATOM
      1 C          64.1982   89.2287   14.0432 C.3     1  UNL1        0.0926
      2 C          64.7720   90.4103   14.7674 C.3     1  UNL1        0.0887
      3 N          64.4772   91.6382   13.9578 N.3     1  UNL1       -0.2958
      4 C          63.7211   91.2153   12.7331 C.3     1  UNL1        0.0747
      5 C          63.5487   89.7262   12.7860 C.3     1  UNL1        0.0573
      6 H          65.3497   92.0917   13.6865 H       1  UNL1        0.1233
      7 C          62.8495   88.8828   11.7614 C.ar    1  UNL1       -0.0195
      8 C          62.8222   87.3904   11.9107 C.ar    1  UNL1       -0.0042
      9 C          62.1230   86.5470   10.8861 C.ar    1  UNL1        0.0035
     10 C          61.4511   87.1957    9.7123 C.ar    1  UNL1        0.0714
     11 C          61.4784   88.6880    9.5632 C.ar    1  UNL1        0.0035
     12 C          62.1776   89.5315   10.5877 C.ar    1  UNL1       -0.0042
     13 C          60.7519   86.3523    8.6878 C.3     1  UNL1        0.4186
     14 F          60.0528   85.5088    7.6633 F       1  UNL1       -0.1659
     15 F          59.4481   87.0046    9.0406 F       1  UNL1       -0.1659
     16 F          62.0558   85.7000    8.3350 F       1  UNL1       -0.1659
     17 C          63.6650   87.4040   15.8142 C.2     1  UNL1        0.2269
     18 O          63.0031   88.4361   16.6783 O.2     1  UNL1       -0.2747
     19 N          64.2625   87.8003   14.4966 N.am    1  UNL1       -0.3040
     20 H          64.6969   87.1229   13.9295 H       1  UNL1        0.1494
     21 C          63.7294   85.9756   16.2676 C.3     1  UNL1        0.1113
     22 C          63.2432   82.6434   13.2826 C.ar    1  UNL1        0.0479
     23 C          62.2097   82.8510   14.3497 C.ar    1  UNL1        0.0142
     24 C          62.3718   83.9618   15.3447 C.ar    1  UNL1       -0.0025
     25 C          63.5673   84.8649   15.2725 C.ar    1  UNL1       -0.0130
     26 C          64.6008   84.6572   14.2054 C.ar    1  UNL1       -0.0025
     27 C          64.4388   83.5465   13.2104 C.ar    1  UNL1        0.0142
     28 C          63.3834   81.7740   10.8384 C.3     1  UNL1        0.1122
     29 N          63.0812   81.5326   12.2876 N.pl3   1  UNL1       -0.3041
     30 C          62.6169   80.1806   12.7419 C.3     1  UNL1        0.1122
@<TRIPOS>BOND
     1    28    29    1
     2    29    30    1
     3    29    22    1
     4    22    23   ar
     5    23    24   ar
     6    24    25   ar
     7    25    21    1
     8    21    17    1
     9    17    18    2
    10    17    19   am
    11     1    19    1
    12     1     2    1
    13     2     3    1
    14     3     4    1
    15     4     5    1
    16     5     7    1
    17     7     8   ar
    18     8     9   ar
    19     9    10   ar
    20    10    13    1
    21    13    14    1
    22    13    15    1
    23    13    16    1
    24    10    11   ar
    25    11    12   ar
    26    25    26   ar
    27    26    27   ar
    28    27    22   ar
    29     5     1    1
    30    12     7   ar
    31    19    20    1
    32     3     6    1
@<TRIPOS>MOLECULE
*****
 30 32 0 0 0
SMALL
GASTEIGER

@<TRIPOS>ATOM
      1 C          61.2116   88.5974    9.4377 C.3     1  UNL1        0.0926
      2 C          60.1967   89.3535    8.6326 C.3     1  UNL1        0.0887
      3 N          59.3711   88.3572    7.8739 N.3     1  UNL1       -0.2958
      4 C          59.8759   86.9852    8.2100 C.3     1  UNL1        0.0747
      5 C          61.0134   87.1337    9.1765 C.3     1  UNL1        0.0573
      6 H          59.4623   88.5237    6.8717 H       1  UNL1        0.1233
      7 C          61.8123   86.0148    9.7764 C.ar    1  UNL1       -0.0195
      8 C          61.6662   85.6859   11.2326 C.ar    1  UNL1       -0.0042
      9 C          62.4651   84.5671   11.8325 C.ar    1  UNL1        0.0035
     10 C          63.4101   83.7771   10.9763 C.ar    1  UNL1        0.0714
     11 C          63.5562   84.1061    9.5202 C.ar    1  UNL1        0.0035
     12 C          62.7573   85.2249    8.9203 C.ar    1  UNL1       -0.0042
     13 C          64.2091   82.6583   11.5762 C.3     1  UNL1        0.4186
     14 F          65.0080   81.5395   12.1762 F       1  UNL1       -0.1659
     15 F          63.8120   81.7648   10.4387 F       1  UNL1       -0.1659
     16 F          64.6062   83.5519   12.7138 F       1  UNL1       -0.1659
     17 C          61.9125   89.4697   11.7824 C.2     1  UNL1        0.2269
     18 O          60.5493   89.1381   12.3133 O.2     1  UNL1       -0.2747
     19 N          62.2437   89.1993   10.3447 N.am    1  UNL1       -0.3040
     20 H          63.1384   89.4169    9.9963 H       1  UNL1        0.1494
     21 C          62.9446   90.0716   12.6893 C.3     1  UNL1        0.1113
     22 C          65.7582   93.2148   11.1229 C.ar    1  UNL1        0.0479
     23 C          64.6896   92.6538   10.2322 C.ar    1  UNL1        0.0142
     24 C          63.7517   91.6060   10.7544 C.ar    1  UNL1       -0.0025
     25 C          63.8825   91.1194   12.1672 C.ar    1  UNL1       -0.0130
     26 C          64.9511   91.6804   13.0578 C.ar    1  UNL1       -0.0025
     27 C          65.8890   92.7281   12.5357 C.ar    1  UNL1        0.0142
     28 C          66.5081   95.6988   10.9905 C.3     1  UNL1        0.1122
     29 N          66.6961   94.2626   10.6008 N.pl3   1  UNL1       -0.3041
     30 C          67.8220   93.8741    9.6889 C.3     1  UNL1        0.1122
@<TRIPOS>BOND
     1    28    29    1
     2    29    30    1
     3    29    22    1
     4    22    23   ar
     5    23    24   ar
     6    24    25   ar
     7    25    21    1
     8    21    17    1
     9    17    18    2
    10    17    19   am
    11     1    19    1
    12     1     2    1
    13     2     3    1
    14     3     4    1
    15     4     5    1
    16     5     7    1
    17     7     8   ar
    18     8     9   ar
    19     9    10   ar
    20    10    13    1
    21    13    14    1
    22    13    15    1
    23    13    16    1
    24    10    11   ar
    25    11    12   ar
    26    25    26   ar
    27    26    27   ar
    28    27    22   ar
    29     5     1    1
    30    12     7   ar
    31    19    20    1
    32     3     6    1
@<TRIPOS>MOLECULE
*****
 30 32 0 0 0
SMALL
GASTEIGER

@<TRIPOS>ATOM
      1 C          64.2421   86.5331   14.3193 C.3     1  UNL1        0.0926
      2 C          64.8239   85.5792   15.3202 C.3     1  UNL1        0.0887
      3 N          64.4286   84.1888   14.9195 N.3     1  UNL1       -0.2958
      4 C          63.6026   84.2834   13.6710 C.3     1  UNL1        0.0747
      5 C          63.4873   85.7322   13.3001 C.3     1  UNL1        0.0573
      6 H          63.8822   83.7561   15.6642 H       1  UNL1        0.1233
      7 C          62.7472   86.2834   12.1176 C.ar    1  UNL1       -0.0195
      8 C          62.7819   87.7554   11.8306 C.ar    1  UNL1       -0.0042
      9 C          62.0418   88.3065   10.6480 C.ar    1  UNL1        0.0035
     10 C          61.2669   87.3859    9.7525 C.ar    1  UNL1        0.0714
     11 C          61.2322   85.9140   10.0395 C.ar    1  UNL1        0.0035
     12 C          61.9723   85.3628   11.2220 C.ar    1  UNL1       -0.0042
     13 C          60.5268   87.9370    8.5699 C.3     1  UNL1        0.4186
     14 F          59.7867   88.4881    7.3874 F       1  UNL1       -0.1659
     15 F          60.8971   89.3294    8.9871 F       1  UNL1       -0.1659
     16 F          60.1565   86.5445    8.1527 F       1  UNL1       -0.1659
     17 C          63.7200   88.8342   15.4067 C.2     1  UNL1        0.2269
     18 O          62.9035   88.1500   16.4627 O.2     1  UNL1       -0.2747
     19 N          64.3893   88.0258   14.3350 N.am    1  UNL1       -0.3040
     20 H          64.9252   88.4749   13.6419 H       1  UNL1        0.1494
     21 C          63.8673   90.3269   15.4224 C.3     1  UNL1        0.1113
     22 C          66.0437   92.4084   12.0785 C.ar    1  UNL1        0.0479
     23 C          66.7157   92.2165   13.4057 C.ar    1  UNL1        0.0142
     24 C          65.9902   91.5226   14.5204 C.ar    1  UNL1       -0.0025
     25 C          64.5928   91.0207   14.3077 C.ar    1  UNL1       -0.0130
     26 C          63.9208   91.2126   12.9805 C.ar    1  UNL1       -0.0025
     27 C          64.6462   91.9064   11.8659 C.ar    1  UNL1        0.0142
     28 C          66.5285   94.5600   10.7056 C.3     1  UNL1        0.1122
     29 N          66.7691   93.1022   10.9639 N.pl3   1  UNL1       -0.3041
     30 C          67.7350   92.3381   10.1076 C.3     1  UNL1        0.1122
@<TRIPOS>BOND
     1    28    29    1
     2    29    30    1
     3    29    22    1
     4    22    23   ar
     5    23    24   ar
     6    24    25   ar
     7    25    21    1
     8    21    17    1
     9    17    18    2
    10    17    19   am
    11     1    19    1
    12     1     2    1
    13     2     3    1
    14     3     4    1
    15     4     5    1
    16     5     7    1
    17     7     8   ar
    18     8     9   ar
    19     9    10   ar
    20    10    13    1
    21    13    14    1
    22    13    15    1
    23    13    16    1
    24    10    11   ar
    25    11    12   ar
    26    25    26   ar
    27    26    27   ar
    28    27    22   ar
    29     5     1    1
    30    12     7   ar
    31    19    20    1
    32     3     6    1
@<TRIPOS>MOLECULE
*****
 30 32 0 0 0
SMALL
GASTEIGER

@<TRIPOS>ATOM
      1 C          65.3540   91.5999   14.2474 C.3     1  UNL1        0.0926
      2 C          66.3646   92.6089   14.7064 C.3     1  UNL1        0.0887
      3 N          66.6267   93.5524   13.5701 N.3     1  UNL1       -0.2958
      4 C          65.7781   93.1265   12.4089 C.3     1  UNL1        0.0747
      5 C          64.9915   91.9198   12.8275 C.3     1  UNL1        0.0573
      6 H          67.6124   93.5160   13.3103 H       1  UNL1        0.1233
      7 C          64.0141   91.1655   11.9756 C.ar    1  UNL1       -0.0195
      8 C          63.3948   89.8988   12.4874 C.ar    1  UNL1       -0.0042
      9 C          62.4174   89.1445   11.6355 C.ar    1  UNL1        0.0035
     10 C          62.0592   89.6568   10.2720 C.ar    1  UNL1        0.0714
     11 C          62.6785   90.9236    9.7603 C.ar    1  UNL1        0.0035
     12 C          63.6559   91.6779   10.6122 C.ar    1  UNL1       -0.0042
     13 C          61.0817   88.9025    9.4202 C.3     1  UNL1        0.4186
     14 F          60.1044   88.1482    8.5683 F       1  UNL1       -0.1659
     15 F          60.0790   90.0044    9.5950 F       1  UNL1       -0.1659
     16 F          62.0845   87.8007    9.2453 F       1  UNL1       -0.1659
     17 C          63.8259   90.7486   16.1684 C.2     1  UNL1        0.2269
     18 O          63.4003   92.1582   16.4545 O.2     1  UNL1       -0.2747
     19 N          64.8027   90.4694   15.0649 N.am    1  UNL1       -0.3040
     20 H          65.0820   89.5443   14.8771 H       1  UNL1        0.1494
     21 C          63.2746   89.6182   16.9858 C.3     1  UNL1        0.1113
     22 C          63.5622   85.3927   15.4650 C.ar    1  UNL1        0.0479
     23 C          64.1390   86.5200   14.6610 C.ar    1  UNL1        0.0142
     24 C          64.0431   87.9285   15.1680 C.ar    1  UNL1       -0.0025
     25 C          63.3705   88.2097   16.4788 C.ar    1  UNL1       -0.0130
     26 C          62.7937   87.0823   17.2828 C.ar    1  UNL1       -0.0025
     27 C          62.8895   85.6739   16.7760 C.ar    1  UNL1        0.0142
     28 C          64.9358   83.4931   14.3449 C.3     1  UNL1        0.1122
     29 N          63.6580   83.9842   14.9581 N.pl3   1  UNL1       -0.3041
     30 C          62.4760   83.0668   15.0644 C.3     1  UNL1        0.1122
@<TRIPOS>BOND
     1    28    29    1
     2    29    30    1
     3    29    22    1
     4    22    23   ar
     5    23    24   ar
     6    24    25   ar
     7    25    21    1
     8    21    17    1
     9    17    18    2
    10    17    19   am
    11     1    19    1
    12     1     2    1
    13     2     3    1
    14     3     4    1
    15     4     5    1
    16     5     7    1
    17     7     8   ar
    18     8     9   ar
    19     9    10   ar
    20    10    13    1
    21    13    14    1
    22    13    15    1
    23    13    16    1
    24    10    11   ar
    25    11    12   ar
    26    25    26   ar
    27    26    27   ar
    28    27    22   ar
    29     5     1    1
    30    12     7   ar
    31    19    20    1
    32     3     6    1
@<TRIPOS>MOLECULE
*****
 30 32 0 0 0
SMALL
GASTEIGER

@<TRIPOS>ATOM
      1 C          64.0326   83.7258   13.1977 C.3     1  UNL1        0.0926
      2 C          64.3798   82.3688   13.7346 C.3     1  UNL1        0.0887
      3 N          63.7237   81.3423   12.8595 N.3     1  UNL1       -0.2958
      4 C          62.9710   82.0649   11.7818 C.3     1  UNL1        0.0747
      5 C          63.1620   83.5379   11.9908 C.3     1  UNL1        0.0573
      6 H          63.0794   80.7770   13.4124 H       1  UNL1        0.1233
      7 C          62.5837   84.6311   11.1420 C.ar    1  UNL1       -0.0195
      8 C          61.6187   85.6126   11.7382 C.ar    1  UNL1       -0.0042
      9 C          61.0405   86.7058   10.8894 C.ar    1  UNL1        0.0035
     10 C          61.4272   86.8176    9.4444 C.ar    1  UNL1        0.0714
     11 C          62.3921   85.8361    8.8482 C.ar    1  UNL1        0.0035
     12 C          62.9704   84.7429    9.6971 C.ar    1  UNL1       -0.0042
     13 C          60.8489   87.9108    8.5956 C.3     1  UNL1        0.4186
     14 F          60.2707   89.0041    7.7468 F       1  UNL1       -0.1659
     15 F          60.2187   86.8838    7.7022 F       1  UNL1       -0.1659
     16 F          61.4792   88.9379    9.4890 F       1  UNL1       -0.1659
     17 C          63.6500   85.7218   14.8163 C.2     1  UNL1        0.2269
     18 O          62.3767   85.0897   15.2948 O.2     1  UNL1       -0.2747
     19 N          64.4780   85.0399   13.7677 N.am    1  UNL1       -0.3040
     20 H          65.3137   85.4548   13.4537 H       1  UNL1        0.1494
     21 C          64.0954   87.0358   15.3862 C.3     1  UNL1        0.1113
     22 C          64.4150   90.6503   12.7247 C.ar    1  UNL1        0.0479
     23 C          65.0818   90.6470   14.0683 C.ar    1  UNL1        0.0142
     24 C          64.9752   89.4422   14.9555 C.ar    1  UNL1       -0.0025
     25 C          64.2019   88.2407   14.4990 C.ar    1  UNL1       -0.0130
     26 C          63.5352   88.2440   13.1554 C.ar    1  UNL1       -0.0025
     27 C          63.6417   89.4488   12.2682 C.ar    1  UNL1        0.0142
     28 C          65.4206   92.9925   12.2221 C.3     1  UNL1        0.1122
     29 N          64.5215   91.8551   11.8375 N.pl3   1  UNL1       -0.3041
     30 C          63.7289   91.9225   10.5658 C.3     1  UNL1        0.1122
@<TRIPOS>BOND
     1    28    29    1
     2    29    30    1
     3    29    22    1
     4    22    23   ar
     5    23    24   ar
     6    24    25   ar
     7    25    21    1
     8    21    17    1
     9    17    18    2
    10    17    19   am
    11     1    19    1
    12     1     2    1
    13     2     3    1
    14     3     4    1
    15     4     5    1
    16     5     7    1
    17     7     8   ar
    18     8     9   ar
    19     9    10   ar
    20    10    13    1
    21    13    14    1
    22    13    15    1
    23    13    16    1
    24    10    11   ar
    25    11    12   ar
    26    25    26   ar
    27    26    27   ar
    28    27    22   ar
    29     5     1    1
    30    12     7   ar
    31    19    20    1
    32     3     6    1
@<TRIPOS>MOLECULE
*****
 30 32 0 0 0
SMALL
GASTEIGER

@<TRIPOS>ATOM
      1 C          63.6548   82.5221   13.2810 C.3     1  UNL1        0.0926
      2 C          63.7372   81.0301   13.4113 C.3     1  UNL1        0.0887
      3 N          63.1673   80.4236   12.1634 N.3     1  UNL1       -0.2958
      4 C          62.7326   81.5409   11.2618 C.3     1  UNL1        0.0747
      5 C          63.0340   82.8378   11.9526 C.3     1  UNL1        0.0573
      6 H          62.3667   79.8368   12.3981 H       1  UNL1        0.1233
      7 C          62.7621   84.2096   11.4101 C.ar    1  UNL1       -0.0195
      8 C          62.9603   84.4915    9.9501 C.ar    1  UNL1       -0.0042
      9 C          62.6884   85.8633    9.4076 C.ar    1  UNL1        0.0035
     10 C          62.2185   86.9532   10.3249 C.ar    1  UNL1        0.0714
     11 C          62.0204   86.6712   11.7848 C.ar    1  UNL1        0.0035
     12 C          62.2922   85.2994   12.3273 C.ar    1  UNL1       -0.0042
     13 C          61.9467   88.3249    9.7824 C.3     1  UNL1        0.4186
     14 F          61.6749   89.6967    9.2400 F       1  UNL1       -0.1659
     15 F          61.0372   87.7348    8.7458 F       1  UNL1       -0.1659
     16 F          62.8562   88.9151   10.8191 F       1  UNL1       -0.1659
     17 C          63.1648   84.0028   15.3589 C.2     1  UNL1        0.2269
     18 O          61.7586   83.4823   15.3982 O.2     1  UNL1       -0.2747
     19 N          64.1129   83.5228   14.3003 N.am    1  UNL1       -0.3040
     20 H          65.0359   83.8645   14.2745 H       1  UNL1        0.1494
     21 C          63.6229   85.0035   16.3781 C.3     1  UNL1        0.1113
     22 C          63.8778   89.3636   15.2943 C.ar    1  UNL1        0.0479
     23 C          64.4692   88.3287   14.3838 C.ar    1  UNL1        0.0142
     24 C          64.3843   86.8753   14.7451 C.ar    1  UNL1       -0.0025
     25 C          63.7079   86.4569   16.0168 C.ar    1  UNL1       -0.0130
     26 C          63.1164   87.4918   16.9274 C.ar    1  UNL1       -0.0025
     27 C          63.2013   88.9452   16.5661 C.ar    1  UNL1        0.0142
     28 C          64.1552   91.8466   16.0068 C.3     1  UNL1        0.1122
     29 N          63.9627   90.8170   14.9331 N.pl3   1  UNL1       -0.3041
     30 C          63.8551   91.2407   13.4983 C.3     1  UNL1        0.1122
@<TRIPOS>BOND
     1    28    29    1
     2    29    30    1
     3    29    22    1
     4    22    23   ar
     5    23    24   ar
     6    24    25   ar
     7    25    21    1
     8    21    17    1
     9    17    18    2
    10    17    19   am
    11     1    19    1
    12     1     2    1
    13     2     3    1
    14     3     4    1
    15     4     5    1
    16     5     7    1
    17     7     8   ar
    18     8     9   ar
    19     9    10   ar
    20    10    13    1
    21    13    14    1
    22    13    15    1
    23    13    16    1
    24    10    11   ar
    25    11    12   ar
    26    25    26   ar
    27    26    27   ar
    28    27    22   ar
    29     5     1    1
    30    12     7   ar
    31    19    20    1
    32     3     6    1
@<TRIPOS>MOLECULE
*****
 30 32 0 0 0
SMALL
GASTEIGER

@<TRIPOS>ATOM
      1 C          60.2173   88.2185    9.4433 C.3     1  UNL1        0.0926
      2 C          59.3684   88.8913    8.4056 C.3     1  UNL1        0.0887
      3 N          59.3774   88.0358    7.1735 N.3     1  UNL1       -0.2958
      4 C          60.2320   86.8343    7.4497 C.3     1  UNL1        0.0747
      5 C          60.7510   86.9473    8.8525 C.3     1  UNL1        0.0573
      6 H          59.7632   88.5621    6.3895 H       1  UNL1        0.1233
      7 C          61.6465   85.9619    9.5432 C.ar    1  UNL1       -0.0195
      8 C          61.5061   85.7265   11.0180 C.ar    1  UNL1       -0.0042
      9 C          62.4017   84.7411   11.7087 C.ar    1  UNL1        0.0035
     10 C          63.4376   83.9912   10.9247 C.ar    1  UNL1        0.0714
     11 C          63.5779   84.2267    9.4500 C.ar    1  UNL1        0.0035
     12 C          62.6824   85.2120    8.7593 C.ar    1  UNL1       -0.0042
     13 C          64.3331   83.0058   11.6154 C.3     1  UNL1        0.4186
     14 F          65.2286   82.0206   12.3062 F       1  UNL1       -0.1659
     15 F          64.2093   82.0740   10.4466 F       1  UNL1       -0.1659
     16 F          64.4570   83.9378   12.7844 F       1  UNL1       -0.1659
     17 C          61.7849   89.4097   11.1385 C.2     1  UNL1        0.2269
     18 O          62.8163   89.5826   10.0632 O.2     1  UNL1       -0.2747
     19 N          60.4854   88.7277   10.8286 N.am    1  UNL1       -0.3040
     20 H          59.8084   88.6142   11.5343 H       1  UNL1        0.1494
     21 C          62.0530   89.9188   12.5237 C.3     1  UNL1        0.1113
     22 C          66.0624   91.6967   13.5309 C.ar    1  UNL1        0.0479
     23 C          65.4564   90.6574   14.4268 C.ar    1  UNL1        0.0142
     24 C          64.1199   90.0648   14.0911 C.ar    1  UNL1       -0.0025
     25 C          63.3895   90.5115   12.8595 C.ar    1  UNL1       -0.0130
     26 C          63.9955   91.5507   11.9635 C.ar    1  UNL1       -0.0025
     27 C          65.3319   92.1433   12.2992 C.ar    1  UNL1        0.0142
     28 C          67.5094   93.3289   14.9421 C.3     1  UNL1        0.1122
     29 N          67.3988   92.2893   13.8665 N.pl3   1  UNL1       -0.3041
     30 C          68.6247   91.8423   13.1266 C.3     1  UNL1        0.1122
@<TRIPOS>BOND
     1    28    29    1
     2    29    30    1
     3    29    22    1
     4    22    23   ar
     5    23    24   ar
     6    24    25   ar
     7    25    21    1
     8    21    17    1
     9    17    18    2
    10    17    19   am
    11     1    19    1
    12     1     2    1
    13     2     3    1
    14     3     4    1
    15     4     5    1
    16     5     7    1
    17     7     8   ar
    18     8     9   ar
    19     9    10   ar
    20    10    13    1
    21    13    14    1
    22    13    15    1
    23    13    16    1
    24    10    11   ar
    25    11    12   ar
    26    25    26   ar
    27    26    27   ar
    28    27    22   ar
    29     5     1    1
    30    12     7   ar
    31    19    20    1
    32     3     6    1
@<TRIPOS>MOLECULE
*****
 30 32 0 0 0
SMALL
GASTEIGER

@<TRIPOS>ATOM
      1 C          62.8295   82.2016   12.3487 C.3     1  UNL1        0.0926
      2 C          62.9111   80.7454   11.9980 C.3     1  UNL1        0.0887
      3 N          63.3036   79.9921   13.2343 N.3     1  UNL1       -0.2958
      4 C          63.4645   80.9827   14.3491 C.3     1  UNL1        0.0747
      5 C          63.1715   82.3482   13.8018 C.3     1  UNL1        0.0573
      6 H          64.1844   79.5025   13.0763 H       1  UNL1        0.1233
      7 C          63.2133   83.6345   14.5724 C.ar    1  UNL1       -0.0195
      8 C          62.2384   83.8728   15.6872 C.ar    1  UNL1       -0.0042
      9 C          62.2801   85.1591   16.4578 C.ar    1  UNL1        0.0035
     10 C          63.2967   86.2070   16.1136 C.ar    1  UNL1        0.0714
     11 C          64.2715   85.9686   14.9987 C.ar    1  UNL1        0.0035
     12 C          64.2298   84.6824   14.2282 C.ar    1  UNL1       -0.0042
     13 C          63.3384   87.4933   16.8841 C.3     1  UNL1        0.4186
     14 F          63.3802   88.7796   17.6546 F       1  UNL1       -0.1659
     15 F          62.7799   86.7913   18.0863 F       1  UNL1       -0.1659
     16 F          63.8969   88.1954   15.6819 F       1  UNL1       -0.1659
     17 C          63.4259   83.7259   10.3311 C.2     1  UNL1        0.2269
     18 O          64.7430   83.0224   10.1889 O.2     1  UNL1       -0.2747
     19 N          62.4691   83.3155   11.4110 N.am    1  UNL1       -0.3040
     20 H          61.6047   83.7773   11.5043 H       1  UNL1        0.1494
     21 C          63.0655   84.8398    9.3934 C.3     1  UNL1        0.1113
     22 C          60.5555   88.2807   10.8463 C.ar    1  UNL1        0.0479
     23 C          60.1407   87.5123    9.6266 C.ar    1  UNL1        0.0142
     24 C          60.9774   86.3653    9.1423 C.ar    1  UNL1       -0.0025
     25 C          62.2288   85.9868    9.8777 C.ar    1  UNL1       -0.0130
     26 C          62.6435   86.7552   11.0974 C.ar    1  UNL1       -0.0025
     27 C          61.8069   87.9021   11.5817 C.ar    1  UNL1        0.0142
     28 C          59.8695   90.7825   10.7050 C.3     1  UNL1        0.1122
     29 N          59.7188   89.4276   11.3306 N.pl3   1  UNL1       -0.3041
     30 C          58.7315   89.2196   12.4406 C.3     1  UNL1        0.1122
@<TRIPOS>BOND
     1    28    29    1
     2    29    30    1
     3    29    22    1
     4    22    23   ar
     5    23    24   ar
     6    24    25   ar
     7    25    21    1
     8    21    17    1
     9    17    18    2
    10    17    19   am
    11     1    19    1
    12     1     2    1
    13     2     3    1
    14     3     4    1
    15     4     5    1
    16     5     7    1
    17     7     8   ar
    18     8     9   ar
    19     9    10   ar
    20    10    13    1
    21    13    14    1
    22    13    15    1
    23    13    16    1
    24    10    11   ar
    25    11    12   ar
    26    25    26   ar
    27    26    27   ar
    28    27    22   ar
    29     5     1    1
    30    12     7   ar
    31    19    20    1
    32     3     6    1
@<TRIPOS>MOLECULE
*****
 30 32 0 0 0
SMALL
GASTEIGER

@<TRIPOS>ATOM
      1 C          61.3607   88.2364    9.2538 C.3     1  UNL1        0.0926
      2 C          60.1713   88.2388    8.3397 C.3     1  UNL1        0.0887
      3 N          59.4886   89.5680    8.4707 N.3     1  UNL1       -0.2958
      4 C          60.2561   90.3872    9.4657 C.3     1  UNL1        0.0747
      5 C          61.4131   89.5642    9.9496 C.3     1  UNL1        0.0573
      6 H          58.5314   89.4349    8.7968 H       1  UNL1        0.1233
      7 C          62.4418   89.9937   10.9533 C.ar    1  UNL1       -0.0195
      8 C          63.3040   91.1901   10.6785 C.ar    1  UNL1       -0.0042
      9 C          64.3327   91.6196   11.6821 C.ar    1  UNL1        0.0035
     10 C          64.4994   90.8527   12.9605 C.ar    1  UNL1        0.0714
     11 C          63.6372   89.6564   13.2352 C.ar    1  UNL1        0.0035
     12 C          62.6085   89.2269   12.2316 C.ar    1  UNL1       -0.0042
     13 C          65.5281   91.2822   13.9641 C.3     1  UNL1        0.4186
     14 F          66.5568   91.7117   14.9676 F       1  UNL1       -0.1659
     15 F          65.3839   89.9687   14.6739 F       1  UNL1       -0.1659
     16 F          65.6723   92.5958   13.2542 F       1  UNL1       -0.1659
     17 C          62.2683   85.9112    8.5331 C.2     1  UNL1        0.2269
     18 O          61.2417   85.8488    7.4412 O.2     1  UNL1       -0.2747
     19 N          62.3278   87.1049    9.4393 N.am    1  UNL1       -0.3040
     20 H          63.0017   87.1458   10.1559 H       1  UNL1        0.1494
     21 C          63.2354   84.7797    8.7187 C.3     1  UNL1        0.1113
     22 C          63.6063   82.7716   12.7287 C.ar    1  UNL1        0.0479
     23 C          64.3997   82.2659   11.5605 C.ar    1  UNL1        0.0142
     24 C          64.2761   82.9353   10.2238 C.ar    1  UNL1       -0.0025
     25 C          63.3591   84.1103   10.0554 C.ar    1  UNL1       -0.0130
     26 C          62.5657   84.6160   11.2236 C.ar    1  UNL1       -0.0025
     27 C          62.6893   83.9467   12.5603 C.ar    1  UNL1        0.0142
     28 C          63.9986   82.9219   15.2925 C.3     1  UNL1        0.1122
     29 N          63.7299   82.1023   14.0654 N.pl3   1  UNL1       -0.3041
     30 C          63.5848   80.6133   14.1748 C.3     1  UNL1        0.1122
@<TRIPOS>BOND
     1    28    29    1
     2    29    30    1
     3    29    22    1
     4    22    23   ar
     5    23    24   ar
     6    24    25   ar
     7    25    21    1
     8    21    17    1
     9    17    18    2
    10    17    19   am
    11     1    19    1
    12     1     2    1
    13     2     3    1
    14     3     4    1
    15     4     5    1
    16     5     7    1
    17     7     8   ar
    18     8     9   ar
    19     9    10   ar
    20    10    13    1
    21    13    14    1
    22    13    15    1
    23    13    16    1
    24    10    11   ar
    25    11    12   ar
    26    25    26   ar
    27    26    27   ar
    28    27    22   ar
    29     5     1    1
    30    12     7   ar
    31    19    20    1
    32     3     6    1
