@<TRIPOS>MOLECULE
*****
 33 38 0 0 0
SMALL
GASTEIGER

@<TRIPOS>ATOM
      1 C          63.0121   89.8894   12.0104 C.3     1  UNL1        0.0749
      2 C          64.0658   90.9569   12.0045 C.3     1  UNL1        0.0444
      3 C          64.6449   91.4461   13.2988 C.ar    1  UNL1       -0.0101
      4 C          64.1704   90.8678   14.5990 C.ar    1  UNL1       -0.0091
      5 C          64.7496   91.3571   15.8933 C.ar    1  UNL1       -0.0032
      6 C          65.8032   92.4246   15.8874 C.ar    1  UNL1        0.0010
      7 C          66.2777   93.0030   14.5873 C.ar    1  UNL1        0.0142
      8 C          65.6986   92.5138   13.2930 C.ar    1  UNL1        0.0436
      9 C          63.1167   89.8002   14.6048 C.3     1  UNL1        0.0954
     10 N          62.5376   89.3110   13.3105 N.3     1  UNL1       -0.2934
     11 H          61.5321   89.4762   13.3568 H       1  UNL1        0.1236
     12 N          66.1731   93.0921   11.9929 N.pl3   1  UNL1       -0.3063
     13 C          67.1370   92.4481   11.0410 C.3     1  UNL1        0.0922
     14 C          67.3267   93.3740    9.8761 C.3     1  UNL1        0.0375
     15 C          68.0395   93.5482    8.5680 C.3     1  UNL1        0.0204
     16 C          67.6335   94.8721    7.9915 C.3     1  UNL1        0.0722
     17 N          66.6696   95.5161    8.9435 N.3     1  UNL1       -0.2711
     18 C          66.0110   96.8516    8.7623 C.3     1  UNL1        0.0896
     19 C          66.4800   94.5903   10.1082 C.3     1  UNL1        0.0790
     20 C          65.7671   94.4160   11.4164 C.3     1  UNL1        0.1067
     21 C          62.4329   89.4001   10.7161 C.3     1  UNL1        0.0886
     22 C          60.1592   88.2365   11.1918 C.3     1  UNL1        0.0899
     23 N          61.5735   88.1709   10.6961 N.3     1  UNL1       -0.2667
     24 C          62.1282   86.8762   10.1804 C.3     1  UNL1        0.0978
     25 C          62.0776   86.5702    8.7129 C.3     1  UNL1        0.0224
     26 C          62.6323   85.2754    8.1972 C.3     1  UNL1        0.0065
     27 C          63.2376   84.2867    9.1490 C.3     1  UNL1        0.0277
     28 C          63.2882   84.5927   10.6167 C.ar    1  UNL1       -0.0073
     29 C          63.8934   83.6040   11.5685 C.ar    1  UNL1       -0.0015
     30 C          63.9440   83.9101   13.0361 C.ar    1  UNL1        0.0203
     31 C          63.3893   85.2048   13.5517 C.ar    1  UNL1        0.0985
     32 N          62.7840   86.1935   12.5999 N.ar    1  UNL1       -0.2471
     33 C          62.7335   85.8875   11.1324 C.ar    1  UNL1        0.0695
@<TRIPOS>BOND
     1    22    23    1
     2    23    21    1
     3     1    21    1
     4     1     2    1
     5     2     3    1
     6     3     4   ar
     7     4     5   ar
     8     5     6   ar
     9     6     7   ar
    10     7     8   ar
    11     8    12    1
    12    12    13    1
    13    14    13    1
    14    14    15    1
    15    15    16    1
    16    16    17    1
    17    17    18    1
    18    17    19    1
    19    19    20    1
    20     4     9    1
    21     9    10    1
    22    24    23    1
    23    24    25    1
    24    25    26    1
    25    26    27    1
    26    27    28    1
    27    28    29   ar
    28    29    30   ar
    29    30    31   ar
    30    31    32   ar
    31    32    33   ar
    32    10     1    1
    33    33    24    1
    34     8     3   ar
    35    20    12    1
    36    33    28   ar
    37    19    14    1
    38    10    11    1
@<TRIPOS>MOLECULE
*****
 33 38 0 0 0
SMALL
GASTEIGER

@<TRIPOS>ATOM
      1 C          63.8343   91.5664   10.9474 C.3     1  UNL1        0.0749
      2 C          64.1099   91.0928   12.3437 C.3     1  UNL1        0.0444
      3 C          65.0685   91.8477   13.2161 C.ar    1  UNL1       -0.0101
      4 C          65.7515   93.0761   12.6923 C.ar    1  UNL1       -0.0091
      5 C          66.7101   93.8310   13.5649 C.ar    1  UNL1       -0.0032
      6 C          66.9857   93.3574   14.9612 C.ar    1  UNL1        0.0010
      7 C          66.3027   92.1290   15.4850 C.ar    1  UNL1        0.0142
      8 C          65.3441   91.3741   14.6125 C.ar    1  UNL1        0.0436
      9 C          65.4759   93.5497   11.2960 C.3     1  UNL1        0.0954
     10 N          64.5173   92.7949   10.4235 N.3     1  UNL1       -0.2934
     11 H          65.0362   92.5115    9.5924 H       1  UNL1        0.1236
     12 N          64.6611   90.1456   15.1364 N.pl3   1  UNL1       -0.3063
     13 C          63.7293   90.0877   16.3104 C.3     1  UNL1        0.0922
     14 C          63.2823   88.6657   16.4778 C.3     1  UNL1        0.0375
     15 C          62.4302   87.7511   17.3068 C.3     1  UNL1        0.0204
     16 C          62.5591   86.3648   16.7485 C.3     1  UNL1        0.0722
     17 N          63.4909   86.4227   15.5745 N.3     1  UNL1       -0.2711
     18 C          63.9033   85.2622   14.7182 C.3     1  UNL1        0.0896
     19 C          63.9379   87.8447   15.4072 C.3     1  UNL1        0.0790
     20 C          64.7900   88.7593   14.5781 C.3     1  UNL1        0.1067
     21 C          62.8757   90.8115   10.0748 C.3     1  UNL1        0.0886
     22 C          60.7077   90.7192   11.5036 C.3     1  UNL1        0.0899
     23 N          61.7604   90.0221   10.6936 N.3     1  UNL1       -0.2667
     24 C          61.6978   88.5357   10.5026 C.3     1  UNL1        0.0978
     25 C          62.4757   87.6294   11.4101 C.3     1  UNL1        0.0224
     26 C          62.4131   86.1430   11.2190 C.3     1  UNL1        0.0065
     27 C          61.5725   85.5627   10.1205 C.3     1  UNL1        0.0277
     28 C          60.7946   86.4690    9.2130 C.ar    1  UNL1       -0.0073
     29 C          59.9540   85.8888    8.1145 C.ar    1  UNL1       -0.0015
     30 C          59.1761   86.7950    7.2070 C.ar    1  UNL1        0.0203
     31 C          59.2387   88.2815    7.3981 C.ar    1  UNL1        0.0985
     32 N          60.0793   88.8617    8.4966 N.ar    1  UNL1       -0.2471
     33 C          60.8572   87.9555    9.4040 C.ar    1  UNL1        0.0695
@<TRIPOS>BOND
     1    22    23    1
     2    23    21    1
     3     1    21    1
     4     1     2    1
     5     2     3    1
     6     3     4   ar
     7     4     5   ar
     8     5     6   ar
     9     6     7   ar
    10     7     8   ar
    11     8    12    1
    12    12    13    1
    13    14    13    1
    14    14    15    1
    15    15    16    1
    16    16    17    1
    17    17    18    1
    18    17    19    1
    19    19    20    1
    20     4     9    1
    21     9    10    1
    22    24    23    1
    23    24    25    1
    24    25    26    1
    25    26    27    1
    26    27    28    1
    27    28    29   ar
    28    29    30   ar
    29    30    31   ar
    30    31    32   ar
    31    32    33   ar
    32    10     1    1
    33    33    24    1
    34     8     3   ar
    35    20    12    1
    36    33    28   ar
    37    19    14    1
    38    10    11    1
@<TRIPOS>MOLECULE
*****
 33 38 0 0 0
SMALL
GASTEIGER

@<TRIPOS>ATOM
      1 C          61.4096   89.6462   11.8075 C.3     1  UNL1        0.0749
      2 C          61.5937   88.2757   11.2265 C.3     1  UNL1        0.0444
      3 C          60.9428   87.9202    9.9227 C.ar    1  UNL1       -0.0101
      4 C          60.1079   88.9353    9.1998 C.ar    1  UNL1       -0.0091
      5 C          59.4571   88.5798    7.8959 C.ar    1  UNL1       -0.0032
      6 C          59.6411   87.2092    7.3149 C.ar    1  UNL1        0.0010
      7 C          60.4760   86.1941    8.0378 C.ar    1  UNL1        0.0142
      8 C          61.1269   86.5495    9.3416 C.ar    1  UNL1        0.0436
      9 C          59.9239   90.3059    9.7808 C.3     1  UNL1        0.0954
     10 N          60.5747   90.6613   11.0846 N.3     1  UNL1       -0.2934
     11 H          59.8270   90.9352   11.7220 H       1  UNL1        0.1236
     12 N          61.9618   85.5344   10.0644 N.pl3   1  UNL1       -0.3063
     13 C          63.0235   84.6692    9.4527 C.3     1  UNL1        0.0922
     14 C          63.5994   83.8063   10.5361 C.3     1  UNL1        0.0375
     15 C          64.6115   82.7384   10.8276 C.3     1  UNL1        0.0204
     16 C          64.5313   82.4102   12.2891 C.3     1  UNL1        0.0722
     17 N          63.4696   83.2755   12.9008 N.3     1  UNL1       -0.2711
     18 C          63.0564   83.2774   14.3428 C.3     1  UNL1        0.0896
     19 C          62.8937   84.1383   11.8174 C.3     1  UNL1        0.0790
     20 C          61.8816   85.2063   11.5259 C.3     1  UNL1        0.1067
     21 C          62.0605   90.0018   13.1114 C.3     1  UNL1        0.0886
     22 C          64.2401   88.8173   13.8836 C.3     1  UNL1        0.0899
     23 N          63.5554   89.9827   13.2332 N.3     1  UNL1       -0.2667
     24 C          64.3656   91.1290   12.7046 C.3     1  UNL1        0.0978
     25 C          64.2654   91.5144   11.2584 C.3     1  UNL1        0.0224
     26 C          65.0756   92.6607   10.7298 C.3     1  UNL1        0.0065
     27 C          65.9862   93.4217   11.6473 C.3     1  UNL1        0.0277
     28 C          66.0865   93.0363   13.0936 C.ar    1  UNL1       -0.0073
     29 C          66.9970   93.7972   14.0111 C.ar    1  UNL1       -0.0015
     30 C          67.0973   93.4118   15.4572 C.ar    1  UNL1        0.0203
     31 C          66.2870   92.2654   15.9858 C.ar    1  UNL1        0.0985
     32 N          65.3765   91.5045   15.0683 N.ar    1  UNL1       -0.2471
     33 C          65.2762   91.8899   13.6222 C.ar    1  UNL1        0.0695
@<TRIPOS>BOND
     1    22    23    1
     2    23    21    1
     3     1    21    1
     4     1     2    1
     5     2     3    1
     6     3     4   ar
     7     4     5   ar
     8     5     6   ar
     9     6     7   ar
    10     7     8   ar
    11     8    12    1
    12    12    13    1
    13    14    13    1
    14    14    15    1
    15    15    16    1
    16    16    17    1
    17    17    18    1
    18    17    19    1
    19    19    20    1
    20     4     9    1
    21     9    10    1
    22    24    23    1
    23    24    25    1
    24    25    26    1
    25    26    27    1
    26    27    28    1
    27    28    29   ar
    28    29    30   ar
    29    30    31   ar
    30    31    32   ar
    31    32    33   ar
    32    10     1    1
    33    33    24    1
    34     8     3   ar
    35    20    12    1
    36    33    28   ar
    37    19    14    1
    38    10    11    1
@<TRIPOS>MOLECULE
*****
 33 38 0 0 0
SMALL
GASTEIGER

@<TRIPOS>ATOM
      1 C          62.4651   90.4848   10.8393 C.3     1  UNL1        0.0749
      2 C          63.0885   90.1454   12.1607 C.3     1  UNL1        0.0444
      3 C          64.3044   90.8883   12.6292 C.ar    1  UNL1       -0.0101
      4 C          64.8969   91.9707   11.7763 C.ar    1  UNL1       -0.0091
      5 C          66.1129   92.7136   12.2449 C.ar    1  UNL1       -0.0032
      6 C          66.7363   92.3742   13.5663 C.ar    1  UNL1        0.0010
      7 C          66.1438   91.2918   14.4192 C.ar    1  UNL1        0.0142
      8 C          64.9279   90.5489   13.9507 C.ar    1  UNL1        0.0436
      9 C          64.2735   92.3101   10.4549 C.3     1  UNL1        0.0954
     10 N          63.0576   91.5671    9.9865 N.3     1  UNL1       -0.2934
     11 H          63.3004   91.1385    9.0933 H       1  UNL1        0.1236
     12 N          64.3354   89.4665   14.8036 N.pl3   1  UNL1       -0.3063
     13 C          63.4537   89.6700   16.0000 C.3     1  UNL1        0.0922
     14 C          63.0939   88.3199   16.5456 C.3     1  UNL1        0.0375
     15 C          62.3267   87.6113   17.6222 C.3     1  UNL1        0.0204
     16 C          62.5118   86.1354   17.4285 C.3     1  UNL1        0.0722
     17 N          63.3934   85.9320   16.2321 N.3     1  UNL1       -0.2711
     18 C          63.8373   84.6103   15.6786 C.3     1  UNL1        0.0896
     19 C          63.7532   87.2820   15.6865 C.3     1  UNL1        0.0790
     20 C          64.5204   87.9907   14.6099 C.3     1  UNL1        0.1067
     21 C          61.2491   89.7418   10.3708 C.3     1  UNL1        0.0886
     22 C          60.2940   88.0829   12.1275 C.3     1  UNL1        0.0899
     23 N          61.0058   88.3352   10.8314 N.3     1  UNL1       -0.2667
     24 C          61.4743   87.1808    9.9960 C.3     1  UNL1        0.0978
     25 C          61.1416   87.1291    8.5343 C.3     1  UNL1        0.0224
     26 C          61.6101   85.9747    7.6989 C.3     1  UNL1        0.0065
     27 C          62.4113   84.8721    8.3252 C.3     1  UNL1        0.0277
     28 C          62.7440   84.9238    9.7869 C.ar    1  UNL1       -0.0073
     29 C          63.5452   83.8212   10.4132 C.ar    1  UNL1       -0.0015
     30 C          63.8780   83.8730   11.8749 C.ar    1  UNL1        0.0203
     31 C          63.4095   85.0273   12.7103 C.ar    1  UNL1        0.0985
     32 N          62.6083   86.1300   12.0840 N.ar    1  UNL1       -0.2471
     33 C          62.2756   86.0782   10.6223 C.ar    1  UNL1        0.0695
@<TRIPOS>BOND
     1    22    23    1
     2    23    21    1
     3     1    21    1
     4     1     2    1
     5     2     3    1
     6     3     4   ar
     7     4     5   ar
     8     5     6   ar
     9     6     7   ar
    10     7     8   ar
    11     8    12    1
    12    12    13    1
    13    14    13    1
    14    14    15    1
    15    15    16    1
    16    16    17    1
    17    17    18    1
    18    17    19    1
    19    19    20    1
    20     4     9    1
    21     9    10    1
    22    24    23    1
    23    24    25    1
    24    25    26    1
    25    26    27    1
    26    27    28    1
    27    28    29   ar
    28    29    30   ar
    29    30    31   ar
    30    31    32   ar
    31    32    33   ar
    32    10     1    1
    33    33    24    1
    34     8     3   ar
    35    20    12    1
    36    33    28   ar
    37    19    14    1
    38    10    11    1
@<TRIPOS>MOLECULE
*****
 33 38 0 0 0
SMALL
GASTEIGER

@<TRIPOS>ATOM
      1 C          61.6131   89.6708   12.1578 C.3     1  UNL1        0.0749
      2 C          61.7606   88.2999   11.5672 C.3     1  UNL1        0.0444
      3 C          61.1391   87.9847   10.2390 C.ar    1  UNL1       -0.0101
      4 C          60.3701   89.0403    9.5013 C.ar    1  UNL1       -0.0091
      5 C          59.7486   88.7250    8.1730 C.ar    1  UNL1       -0.0032
      6 C          59.8961   87.3541    7.5824 C.ar    1  UNL1        0.0010
      7 C          60.6651   86.2985    8.3201 C.ar    1  UNL1        0.0142
      8 C          61.2866   86.6137    9.6483 C.ar    1  UNL1        0.0436
      9 C          60.2225   90.4112   10.0919 C.3     1  UNL1        0.0954
     10 N          60.8440   90.7265   11.4201 N.3     1  UNL1       -0.2934
     11 H          60.0874   91.0240   12.0360 H       1  UNL1        0.1236
     12 N          62.0556   85.5580   10.3860 N.pl3   1  UNL1       -0.3063
     13 C          63.0416   84.6020    9.7828 C.3     1  UNL1        0.0922
     14 C          63.5690   83.7261   10.8804 C.3     1  UNL1        0.0375
     15 C          64.5043   82.5940   11.1859 C.3     1  UNL1        0.0204
     16 C          64.4224   82.3091   12.6563 C.3     1  UNL1        0.0722
     17 N          63.4365   83.2651   13.2595 N.3     1  UNL1       -0.2711
     18 C          63.0465   83.3333   14.7064 C.3     1  UNL1        0.0896
     19 C          62.9091   84.1409   12.1620 C.3     1  UNL1        0.0790
     20 C          61.9737   85.2731   11.8564 C.3     1  UNL1        0.1067
     21 C          62.2346   89.9861   13.4861 C.3     1  UNL1        0.0886
     22 C          64.2540   88.3613   13.6656 C.3     1  UNL1        0.0899
     23 N          63.7009   89.7552   13.7018 N.3     1  UNL1       -0.2667
     24 C          64.6142   90.9181   13.9537 C.3     1  UNL1        0.0978
     25 C          65.1504   91.1657   15.3326 C.3     1  UNL1        0.0224
     26 C          66.0637   92.3287   15.5845 C.3     1  UNL1        0.0065
     27 C          66.4408   93.2440   14.4576 C.3     1  UNL1        0.0277
     28 C          65.9046   92.9964   13.0787 C.ar    1  UNL1       -0.0073
     29 C          66.2817   93.9118   11.9519 C.ar    1  UNL1       -0.0015
     30 C          65.7455   93.6642   10.5731 C.ar    1  UNL1        0.0203
     31 C          64.8322   92.5013   10.3211 C.ar    1  UNL1        0.0985
     32 N          64.4551   91.5859   11.4480 N.ar    1  UNL1       -0.2471
     33 C          64.9913   91.8335   12.8268 C.ar    1  UNL1        0.0695
@<TRIPOS>BOND
     1    22    23    1
     2    23    21    1
     3     1    21    1
     4     1     2    1
     5     2     3    1
     6     3     4   ar
     7     4     5   ar
     8     5     6   ar
     9     6     7   ar
    10     7     8   ar
    11     8    12    1
    12    12    13    1
    13    14    13    1
    14    14    15    1
    15    15    16    1
    16    16    17    1
    17    17    18    1
    18    17    19    1
    19    19    20    1
    20     4     9    1
    21     9    10    1
    22    24    23    1
    23    24    25    1
    24    25    26    1
    25    26    27    1
    26    27    28    1
    27    28    29   ar
    28    29    30   ar
    29    30    31   ar
    30    31    32   ar
    31    32    33   ar
    32    10     1    1
    33    33    24    1
    34     8     3   ar
    35    20    12    1
    36    33    28   ar
    37    19    14    1
    38    10    11    1
@<TRIPOS>MOLECULE
*****
 33 38 0 0 0
SMALL
GASTEIGER

@<TRIPOS>ATOM
      1 C          64.4381   86.7006   14.5226 C.3     1  UNL1        0.0749
      2 C          63.5781   86.3587   13.3422 C.3     1  UNL1        0.0444
      3 C          63.3621   84.9238   12.9621 C.ar    1  UNL1       -0.0101
      4 C          64.0062   83.8309   13.7625 C.ar    1  UNL1       -0.0091
      5 C          63.7901   82.3959   13.3825 C.ar    1  UNL1       -0.0032
      6 C          62.9301   82.0540   12.2020 C.ar    1  UNL1        0.0010
      7 C          62.2861   83.1470   11.4016 C.ar    1  UNL1        0.0142
      8 C          62.5021   84.5819   11.7816 C.ar    1  UNL1        0.0436
      9 C          64.8661   84.1727   14.9430 C.3     1  UNL1        0.0954
     10 N          65.0821   85.6076   15.3230 N.3     1  UNL1       -0.2934
     11 H          66.0882   85.7726   15.2906 H       1  UNL1        0.1236
     12 N          61.8581   85.6749   10.9812 N.pl3   1  UNL1       -0.3063
     13 C          61.6482   85.6736    9.4960 C.3     1  UNL1        0.0922
     14 C          60.9713   86.9590    9.1223 C.3     1  UNL1        0.0375
     15 C          60.4233   87.7525    7.9736 C.3     1  UNL1        0.0204
     16 C          59.8761   89.0387    8.5178 C.3     1  UNL1        0.0722
     17 N          60.0859   89.0400   10.0031 N.3     1  UNL1       -0.2711
     18 C          59.6886   90.1345   10.9487 C.3     1  UNL1        0.0896
     19 C          60.7628   87.7547   10.3767 C.3     1  UNL1        0.0790
     20 C          61.3109   86.9610   11.5255 C.3     1  UNL1        0.1067
     21 C          64.6541   88.1355   14.9027 C.3     1  UNL1        0.0886
     22 C          62.3825   89.3108   15.3593 C.3     1  UNL1        0.0899
     23 N          63.6306   89.1699   14.5391 N.3     1  UNL1       -0.2667
     24 C          63.8550   90.0636   13.3555 C.3     1  UNL1        0.0978
     25 C          63.1674   89.7721   12.0546 C.3     1  UNL1        0.0224
     26 C          63.3919   90.6657   10.8710 C.3     1  UNL1        0.0065
     27 C          64.3038   91.8508   10.9881 C.3     1  UNL1        0.0277
     28 C          64.9914   92.1424   12.2891 C.ar    1  UNL1       -0.0073
     29 C          65.9034   93.3275   12.4062 C.ar    1  UNL1       -0.0015
     30 C          66.5909   93.6190   13.7071 C.ar    1  UNL1        0.0203
     31 C          66.3665   92.7253   14.8908 C.ar    1  UNL1        0.0985
     32 N          65.4545   91.5402   14.7736 N.ar    1  UNL1       -0.2471
     33 C          64.7670   91.2487   13.4727 C.ar    1  UNL1        0.0695
@<TRIPOS>BOND
     1    22    23    1
     2    23    21    1
     3     1    21    1
     4     1     2    1
     5     2     3    1
     6     3     4   ar
     7     4     5   ar
     8     5     6   ar
     9     6     7   ar
    10     7     8   ar
    11     8    12    1
    12    12    13    1
    13    14    13    1
    14    14    15    1
    15    15    16    1
    16    16    17    1
    17    17    18    1
    18    17    19    1
    19    19    20    1
    20     4     9    1
    21     9    10    1
    22    24    23    1
    23    24    25    1
    24    25    26    1
    25    26    27    1
    26    27    28    1
    27    28    29   ar
    28    29    30   ar
    29    30    31   ar
    30    31    32   ar
    31    32    33   ar
    32    10     1    1
    33    33    24    1
    34     8     3   ar
    35    20    12    1
    36    33    28   ar
    37    19    14    1
    38    10    11    1
@<TRIPOS>MOLECULE
*****
 33 38 0 0 0
SMALL
GASTEIGER

@<TRIPOS>ATOM
      1 C          63.2263   86.6475   13.1154 C.3     1  UNL1        0.0749
      2 C          63.3593   88.0585   12.6242 C.3     1  UNL1        0.0444
      3 C          62.5294   88.5313   11.4677 C.ar    1  UNL1       -0.0101
      4 C          61.5664   87.5932   10.8024 C.ar    1  UNL1       -0.0091
      5 C          60.7364   88.0661    9.6458 C.ar    1  UNL1       -0.0032
      6 C          60.8695   89.4771    9.1546 C.ar    1  UNL1        0.0010
      7 C          61.8324   90.4152    9.8198 C.ar    1  UNL1        0.0142
      8 C          62.6624   89.9424   10.9764 C.ar    1  UNL1        0.0436
      9 C          61.4334   86.1822   11.2936 C.3     1  UNL1        0.0954
     10 N          62.2633   85.7093   12.4501 N.3     1  UNL1       -0.2934
     11 H          62.8093   84.9153   12.1156 H       1  UNL1        0.1236
     12 N          63.6253   90.8805   11.6416 N.pl3   1  UNL1       -0.3063
     13 C          64.4425   91.9363   10.9579 C.3     1  UNL1        0.0922
     14 C          65.2624   92.6359   12.0011 C.3     1  UNL1        0.0375
     15 C          66.2741   93.7207   12.2233 C.3     1  UNL1        0.0204
     16 C          66.5890   93.7678   13.6891 C.3     1  UNL1        0.0722
     17 N          65.7719   92.7119   14.3728 N.3     1  UNL1       -0.2711
     18 C          65.7743   92.4089   15.8419 C.3     1  UNL1        0.0896
     19 C          64.9520   92.0124   13.3296 C.3     1  UNL1        0.0790
     20 C          63.9403   90.9275   13.1074 C.3     1  UNL1        0.1067
     21 C          64.0562   86.1745   14.2720 C.3     1  UNL1        0.0886
     22 C          66.0508   84.5342   14.5568 C.3     1  UNL1        0.0899
     23 N          64.5952   84.7748   14.2856 N.3     1  UNL1       -0.2667
     24 C          63.6787   83.6157   14.0280 C.3     1  UNL1        0.0978
     25 C          62.7537   83.1367   15.1073 C.3     1  UNL1        0.0224
     26 C          61.8372   81.9775   14.8497 C.3     1  UNL1        0.0065
     27 C          61.8456   81.2974   13.5129 C.3     1  UNL1        0.0277
     28 C          62.7706   81.7763   12.4335 C.ar    1  UNL1       -0.0073
     29 C          62.7791   81.0962   11.0966 C.ar    1  UNL1       -0.0015
     30 C          63.7041   81.5751   10.0173 C.ar    1  UNL1        0.0203
     31 C          64.6206   82.7343   10.2749 C.ar    1  UNL1        0.0985
     32 N          64.6122   83.4145   11.6118 N.ar    1  UNL1       -0.2471
     33 C          63.6872   82.9355   12.6911 C.ar    1  UNL1        0.0695
@<TRIPOS>BOND
     1    22    23    1
     2    23    21    1
     3     1    21    1
     4     1     2    1
     5     2     3    1
     6     3     4   ar
     7     4     5   ar
     8     5     6   ar
     9     6     7   ar
    10     7     8   ar
    11     8    12    1
    12    12    13    1
    13    14    13    1
    14    14    15    1
    15    15    16    1
    16    16    17    1
    17    17    18    1
    18    17    19    1
    19    19    20    1
    20     4     9    1
    21     9    10    1
    22    24    23    1
    23    24    25    1
    24    25    26    1
    25    26    27    1
    26    27    28    1
    27    28    29   ar
    28    29    30   ar
    29    30    31   ar
    30    31    32   ar
    31    32    33   ar
    32    10     1    1
    33    33    24    1
    34     8     3   ar
    35    20    12    1
    36    33    28   ar
    37    19    14    1
    38    10    11    1
@<TRIPOS>MOLECULE
*****
 33 38 0 0 0
SMALL
GASTEIGER

@<TRIPOS>ATOM
      1 C          62.5136   89.6357   11.8375 C.3     1  UNL1        0.0749
      2 C          62.3863   88.2456   11.2886 C.3     1  UNL1        0.0444
      3 C          61.4566   87.9737   10.1434 C.ar    1  UNL1       -0.0101
      4 C          60.6541   89.0920    9.5470 C.ar    1  UNL1       -0.0091
      5 C          59.7243   88.8200    8.4017 C.ar    1  UNL1       -0.0032
      6 C          59.5970   87.4299    7.8529 C.ar    1  UNL1        0.0010
      7 C          60.3995   86.3117    8.4492 C.ar    1  UNL1        0.0142
      8 C          61.3292   86.5835    9.5944 C.ar    1  UNL1        0.0436
      9 C          60.7814   90.4821   10.0959 C.3     1  UNL1        0.0954
     10 N          61.7112   90.7540   11.2411 N.3     1  UNL1       -0.2934
     11 H          61.1445   91.1439   11.9943 H       1  UNL1        0.1236
     12 N          62.1317   85.4653   10.1908 N.pl3   1  UNL1       -0.3063
     13 C          63.1396   84.6209    9.4689 C.3     1  UNL1        0.0922
     14 C          63.6980   83.6289   10.4457 C.3     1  UNL1        0.0375
     15 C          64.6659   82.4940   10.6032 C.3     1  UNL1        0.0204
     16 C          64.6013   82.0238   12.0261 C.3     1  UNL1        0.0722
     17 N          63.5934   82.8681   12.7480 N.3     1  UNL1       -0.2711
     18 C          63.2110   82.7425   14.1930 C.3     1  UNL1        0.0896
     19 C          63.0351   83.8601   11.7713 C.3     1  UNL1        0.0790
     20 C          62.0671   84.9951   11.6137 C.3     1  UNL1        0.1067
     21 C          63.4434   89.9077   12.9828 C.3     1  UNL1        0.0886
     22 C          64.5986   91.8094   11.6415 C.3     1  UNL1        0.0899
     23 N          64.3624   91.0923   12.9377 N.3     1  UNL1       -0.2667
     24 C          65.0453   91.5598   14.1887 C.3     1  UNL1        0.0978
     25 C          64.2508   91.7685   15.4437 C.3     1  UNL1        0.0224
     26 C          64.9337   92.2359   16.6948 C.3     1  UNL1        0.0065
     27 C          66.4112   92.4947   16.6908 C.3     1  UNL1        0.0277
     28 C          67.2058   92.2860   15.4358 C.ar    1  UNL1       -0.0073
     29 C          68.6833   92.5448   15.4318 C.ar    1  UNL1       -0.0015
     30 C          69.4778   92.3361   14.1768 C.ar    1  UNL1        0.0203
     31 C          68.7949   91.8686   12.9258 C.ar    1  UNL1        0.0985
     32 N          67.3175   91.6098   12.9297 N.ar    1  UNL1       -0.2471
     33 C          66.5229   91.8185   14.1847 C.ar    1  UNL1        0.0695
@<TRIPOS>BOND
     1    22    23    1
     2    23    21    1
     3     1    21    1
     4     1     2    1
     5     2     3    1
     6     3     4   ar
     7     4     5   ar
     8     5     6   ar
     9     6     7   ar
    10     7     8   ar
    11     8    12    1
    12    12    13    1
    13    14    13    1
    14    14    15    1
    15    15    16    1
    16    16    17    1
    17    17    18    1
    18    17    19    1
    19    19    20    1
    20     4     9    1
    21     9    10    1
    22    24    23    1
    23    24    25    1
    24    25    26    1
    25    26    27    1
    26    27    28    1
    27    28    29   ar
    28    29    30   ar
    29    30    31   ar
    30    31    32   ar
    31    32    33   ar
    32    10     1    1
    33    33    24    1
    34     8     3   ar
    35    20    12    1
    36    33    28   ar
    37    19    14    1
    38    10    11    1
@<TRIPOS>MOLECULE
*****
 33 38 0 0 0
SMALL
GASTEIGER

@<TRIPOS>ATOM
      1 C          63.9861   84.9379   13.7862 C.3     1  UNL1        0.0749
      2 C          63.9368   86.4201   14.0108 C.3     1  UNL1        0.0444
      3 C          63.5915   86.9623   15.3661 C.ar    1  UNL1       -0.0101
      4 C          63.2954   86.0221   16.4968 C.ar    1  UNL1       -0.0091
      5 C          62.9501   86.5643   17.8521 C.ar    1  UNL1       -0.0032
      6 C          62.9008   88.0465   18.0767 C.ar    1  UNL1        0.0010
      7 C          63.1969   88.9867   16.9460 C.ar    1  UNL1        0.0142
      8 C          63.5422   88.4446   15.5907 C.ar    1  UNL1        0.0436
      9 C          63.3447   84.5399   16.2722 C.3     1  UNL1        0.0954
     10 N          63.6900   83.9978   14.9170 N.3     1  UNL1       -0.2934
     11 H          62.9028   83.4204   14.6214 H       1  UNL1        0.1236
     12 N          63.8383   89.3847   14.4600 N.pl3   1  UNL1       -0.3063
     13 C          63.1301   89.4249   13.1383 C.3     1  UNL1        0.0922
     14 C          63.7486   90.5147   12.3139 C.3     1  UNL1        0.0375
     15 C          63.6933   91.2131   10.9877 C.3     1  UNL1        0.0204
     16 C          64.7495   92.2781   10.9801 C.3     1  UNL1        0.0722
     17 N          65.4576   92.2380   12.3018 N.3     1  UNL1       -0.2711
     18 C          66.5862   93.1310   12.7248 C.3     1  UNL1        0.0896
     19 C          64.8391   91.1482   13.1261 C.3     1  UNL1        0.0790
     20 C          64.8945   90.4498   14.4525 C.3     1  UNL1        0.1067
     21 C          64.3314   84.3957   12.4309 C.3     1  UNL1        0.0886
     22 C          62.5496   82.5631   11.9654 C.3     1  UNL1        0.0899
     23 N          63.2563   83.8215   11.5566 N.3     1  UNL1       -0.2667
     24 C          62.8880   84.5056   10.2735 C.3     1  UNL1        0.0978
     25 C          63.4221   83.9918    8.9694 C.3     1  UNL1        0.0224
     26 C          63.0537   84.6760    7.6864 C.3     1  UNL1        0.0065
     27 C          62.1513   85.8739    7.7074 C.3     1  UNL1        0.0277
     28 C          61.6171   86.3878    9.0115 C.ar    1  UNL1       -0.0073
     29 C          60.7147   87.5857    9.0325 C.ar    1  UNL1       -0.0015
     30 C          60.1806   88.0995   10.3366 C.ar    1  UNL1        0.0203
     31 C          60.5489   87.4154   11.6197 C.ar    1  UNL1        0.0985
     32 N          61.4514   86.2175   11.5987 N.ar    1  UNL1       -0.2471
     33 C          61.9855   85.7036   10.2946 C.ar    1  UNL1        0.0695
@<TRIPOS>BOND
     1    22    23    1
     2    23    21    1
     3     1    21    1
     4     1     2    1
     5     2     3    1
     6     3     4   ar
     7     4     5   ar
     8     5     6   ar
     9     6     7   ar
    10     7     8   ar
    11     8    12    1
    12    12    13    1
    13    14    13    1
    14    14    15    1
    15    15    16    1
    16    16    17    1
    17    17    18    1
    18    17    19    1
    19    19    20    1
    20     4     9    1
    21     9    10    1
    22    24    23    1
    23    24    25    1
    24    25    26    1
    25    26    27    1
    26    27    28    1
    27    28    29   ar
    28    29    30   ar
    29    30    31   ar
    30    31    32   ar
    31    32    33   ar
    32    10     1    1
    33    33    24    1
    34     8     3   ar
    35    20    12    1
    36    33    28   ar
    37    19    14    1
    38    10    11    1
