@<TRIPOS>MOLECULE
*****
 29 32 0 0 0
SMALL
GASTEIGER

@<TRIPOS>ATOM
      1 N          64.5808   90.3883   14.2500 N.3     1  UNL1       -0.2641
      2 C          65.8399   91.1345   14.5783 C.3     1  UNL1        0.0730
      3 C          66.3998   92.1266   13.6024 C.3     1  UNL1        0.0245
      4 C          65.7006   92.3724   12.2983 C.3     1  UNL1        0.0577
      5 C          64.4414   91.6261   11.9700 C.3     1  UNL1        0.1808
      6 F          63.7422   91.8719   10.6659 F       1  UNL1       -0.2354
      7 C          63.8816   90.6341   12.9459 C.3     1  UNL1        0.1084
      8 C          66.2605   93.3645   11.3224 C.ar    1  UNL1       -0.0196
      9 C          66.0740   94.8343   11.5568 C.ar    1  UNL1       -0.0011
     10 C          66.6339   95.8264   10.5809 C.ar    1  UNL1        0.0363
     11 C          67.3803   95.3485    9.3707 C.ar    1  UNL1        0.1337
     12 O          67.9402   96.3406    8.3948 O.3     1  UNL1       -0.5055
     13 C          67.5668   93.8788    9.1363 C.ar    1  UNL1        0.0363
     14 C          67.0069   92.8867   10.1121 C.ar    1  UNL1       -0.0011
     15 H          67.8237   97.2588    8.5412 H       1  UNL1        0.2922
     16 N          63.4734   87.3101   16.3391 N.am    1  UNL1       -0.2743
     17 C          62.8452   88.4289   17.1161 C.3     1  UNL1        0.0957
     18 C          63.1835   89.7183   16.4280 C.3     1  UNL1        0.0468
     19 C          64.0209   89.3962   15.2258 C.3     1  UNL1        0.1368
     20 C          64.2001   87.9080   15.1709 C.2     1  UNL1        0.2404
     21 O          64.9705   87.1505   14.1305 O.2     1  UNL1       -0.2734
     22 C          63.3897   85.8499   16.6719 C.3     1  UNL1        0.1202
     23 C          63.1183   81.7807   12.2710 C.3     1  UNL1        0.0310
     24 C          63.1862   82.7980   13.3712 C.ar    1  UNL1       -0.0219
     25 C          64.4976   83.4350   13.7239 C.ar    1  UNL1       -0.0045
     26 C          64.5654   84.4523   14.8241 C.ar    1  UNL1       -0.0029
     27 C          63.3219   84.8326   15.5717 C.ar    1  UNL1       -0.0024
     28 C          62.0105   84.1956   15.2190 C.ar    1  UNL1       -0.0029
     29 C          61.9426   83.1783   14.1188 C.ar    1  UNL1       -0.0045
@<TRIPOS>BOND
     1    23    24    1
     2    24    25   ar
     3    25    26   ar
     4    26    27   ar
     5    27    22    1
     6    22    16    1
     7    16    17    1
     8    17    18    1
     9    18    19    1
    10    19     1    1
    11     1     2    1
    12     2     3    1
    13     3     4    1
    14     4     8    1
    15     8     9   ar
    16     9    10   ar
    17    10    11   ar
    18    11    12    1
    19    11    13   ar
    20    13    14   ar
    21     4     5    1
    22     5     6    1
    23     5     7    1
    24    19    20    1
    25    20    21    2
    26    27    28   ar
    27    28    29   ar
    28    29    24   ar
    29    20    16   am
    30     7     1    1
    31    14     8   ar
    32    12    15    1
@<TRIPOS>MOLECULE
*****
 29 32 0 0 0
SMALL
GASTEIGER

@<TRIPOS>ATOM
      1 N          63.1568   86.6070   12.4220 N.3     1  UNL1       -0.2641
      2 C          62.4130   86.1094   11.2181 C.3     1  UNL1        0.0730
      3 C          62.3359   84.6375   10.9395 C.3     1  UNL1        0.0245
      4 C          63.0026   83.6632   11.8648 C.3     1  UNL1        0.0577
      5 C          63.7464   84.1606   13.0687 C.3     1  UNL1        0.1808
      6 F          64.4131   83.1863   13.9939 F       1  UNL1       -0.2354
      7 C          63.8235   85.6326   13.3472 C.3     1  UNL1        0.1084
      8 C          62.9255   82.1913   11.5862 C.ar    1  UNL1       -0.0196
      9 C          62.5356   81.2405   12.6789 C.ar    1  UNL1       -0.0011
     10 C          62.4585   79.7686   12.4003 C.ar    1  UNL1        0.0363
     11 C          62.7714   79.2476   11.0289 C.ar    1  UNL1        0.1337
     12 O          62.6943   77.7757   10.7503 O.3     1  UNL1       -0.5055
     13 C          63.1613   80.1983    9.9362 C.ar    1  UNL1        0.0363
     14 C          63.2384   81.6701   10.2148 C.ar    1  UNL1       -0.0011
     15 H          62.4508   77.1818   11.4329 H       1  UNL1        0.2922
     16 N          63.6021   90.1997   13.8217 N.am    1  UNL1       -0.2743
     17 C          63.1028   90.4880   12.4370 C.3     1  UNL1        0.0957
     18 C          62.8752   89.1772   11.7440 C.3     1  UNL1        0.0468
     19 C          63.2339   88.0788   12.7006 C.3     1  UNL1        0.1368
     20 C          63.6831   88.7107   13.9846 C.2     1  UNL1        0.2404
     21 O          64.1341   87.9817   15.2155 O.2     1  UNL1       -0.2734
     22 C          63.9580   91.2210   14.8611 C.3     1  UNL1        0.1202
     23 C          69.6147   93.1612   15.3475 C.3     1  UNL1        0.0310
     24 C          68.2005   92.6762   15.2259 C.ar    1  UNL1       -0.0219
     25 C          67.2244   92.9243   16.3374 C.ar    1  UNL1       -0.0045
     26 C          65.8102   92.4392   16.2158 C.ar    1  UNL1       -0.0029
     27 C          65.3722   91.7060   14.9827 C.ar    1  UNL1       -0.0024
     28 C          66.3483   91.4580   13.8712 C.ar    1  UNL1       -0.0029
     29 C          67.7625   91.9430   13.9928 C.ar    1  UNL1       -0.0045
@<TRIPOS>BOND
     1    23    24    1
     2    24    25   ar
     3    25    26   ar
     4    26    27   ar
     5    27    22    1
     6    22    16    1
     7    16    17    1
     8    17    18    1
     9    18    19    1
    10    19     1    1
    11     1     2    1
    12     2     3    1
    13     3     4    1
    14     4     8    1
    15     8     9   ar
    16     9    10   ar
    17    10    11   ar
    18    11    12    1
    19    11    13   ar
    20    13    14   ar
    21     4     5    1
    22     5     6    1
    23     5     7    1
    24    19    20    1
    25    20    21    2
    26    27    28   ar
    27    28    29   ar
    28    29    24   ar
    29    20    16   am
    30     7     1    1
    31    14     8   ar
    32    12    15    1
@<TRIPOS>MOLECULE
*****
 29 32 0 0 0
SMALL
GASTEIGER

@<TRIPOS>ATOM
      1 N          63.5467   85.9288   13.3429 N.3     1  UNL1       -0.2641
      2 C          62.8723   85.6846   12.0255 C.3     1  UNL1        0.0730
      3 C          62.6987   84.2830   11.5202 C.3     1  UNL1        0.0245
      4 C          63.1997   83.1255   12.3322 C.3     1  UNL1        0.0577
      5 C          63.8742   83.3697   13.6496 C.3     1  UNL1        0.1808
      6 F          64.3751   82.2122   14.4616 F       1  UNL1       -0.2354
      7 C          64.0477   84.7713   14.1549 C.3     1  UNL1        0.1084
      8 C          63.0261   81.7239   11.8268 C.ar    1  UNL1       -0.0196
      9 C          63.2377   81.4191   10.3735 C.ar    1  UNL1       -0.0011
     10 C          63.0641   80.0175    9.8681 C.ar    1  UNL1        0.0363
     11 C          62.6790   78.9208   10.8162 C.ar    1  UNL1        0.1337
     12 O          62.5055   77.5191   10.3109 O.3     1  UNL1       -0.5055
     13 C          62.4675   79.2256   12.2696 C.ar    1  UNL1        0.0363
     14 C          62.6410   80.6271   12.7749 C.ar    1  UNL1       -0.0011
     15 H          62.6376   77.3287    9.4030 H       1  UNL1        0.2922
     16 N          63.8120   89.7537   13.9471 N.am    1  UNL1       -0.2743
     17 C          64.1627   89.2208   15.3047 C.3     1  UNL1        0.0957
     18 C          64.1060   87.7230   15.2436 C.3     1  UNL1        0.0468
     19 C          63.7203   87.3303   13.8482 C.3     1  UNL1        0.1368
     20 C          63.5385   88.5853   13.0470 C.2     1  UNL1        0.2404
     21 O          63.1514   88.6590   11.5997 O.2     1  UNL1       -0.2734
     22 C          63.7462   91.2008   13.5580 C.3     1  UNL1        0.1202
     23 C          67.7602   93.4587    9.7122 C.3     1  UNL1        0.0310
     24 C          66.7567   92.8942   10.6736 C.ar    1  UNL1       -0.0219
     25 C          67.1324   92.6795   12.1098 C.ar    1  UNL1       -0.0045
     26 C          66.1289   92.1150   13.0713 C.ar    1  UNL1       -0.0029
     27 C          64.7497   91.7653   12.5965 C.ar    1  UNL1       -0.0024
     28 C          64.3740   91.9800   11.1603 C.ar    1  UNL1       -0.0029
     29 C          65.3775   92.5445   10.1989 C.ar    1  UNL1       -0.0045
@<TRIPOS>BOND
     1    23    24    1
     2    24    25   ar
     3    25    26   ar
     4    26    27   ar
     5    27    22    1
     6    22    16    1
     7    16    17    1
     8    17    18    1
     9    18    19    1
    10    19     1    1
    11     1     2    1
    12     2     3    1
    13     3     4    1
    14     4     8    1
    15     8     9   ar
    16     9    10   ar
    17    10    11   ar
    18    11    12    1
    19    11    13   ar
    20    13    14   ar
    21     4     5    1
    22     5     6    1
    23     5     7    1
    24    19    20    1
    25    20    21    2
    26    27    28   ar
    27    28    29   ar
    28    29    24   ar
    29    20    16   am
    30     7     1    1
    31    14     8   ar
    32    12    15    1
@<TRIPOS>MOLECULE
*****
 29 32 0 0 0
SMALL
GASTEIGER

@<TRIPOS>ATOM
      1 N          63.3202   90.6036   12.2869 N.3     1  UNL1       -0.2641
      2 C          63.5619   90.2337   13.7203 C.3     1  UNL1        0.0730
      3 C          64.7123   90.8403   14.4678 C.3     1  UNL1        0.0245
      4 C          65.6209   91.8170   13.7818 C.3     1  UNL1        0.0577
      5 C          65.3792   92.1870   12.3484 C.3     1  UNL1        0.1808
      6 F          66.2878   93.1636   11.6624 F       1  UNL1       -0.2354
      7 C          64.2288   91.5803   11.6010 C.3     1  UNL1        0.1084
      8 C          66.7713   92.4237   14.5293 C.ar    1  UNL1       -0.0196
      9 C          66.9611   93.9116   14.5346 C.ar    1  UNL1       -0.0011
     10 C          68.1115   94.5183   15.2820 C.ar    1  UNL1        0.0363
     11 C          69.0719   93.6369   16.0242 C.ar    1  UNL1        0.1337
     12 O          70.2223   94.2436   16.7716 O.3     1  UNL1       -0.5055
     13 C          68.8821   92.1490   16.0189 C.ar    1  UNL1        0.0363
     14 C          67.7318   91.5423   15.2715 C.ar    1  UNL1       -0.0011
     15 H          70.3408   95.1730   16.7749 H       1  UNL1        0.2922
     16 N          60.6756   88.3785   10.5206 N.am    1  UNL1       -0.2743
     17 C          60.1238   89.7483   10.2579 C.3     1  UNL1        0.0957
     18 C          61.0473   90.7487   10.8877 C.3     1  UNL1        0.0468
     19 C          62.1699   89.9970   11.5395 C.3     1  UNL1        0.1368
     20 C          61.9402   88.5322   11.3127 C.2     1  UNL1        0.2404
     21 O          62.8204   87.4168   11.7934 O.2     1  UNL1       -0.2734
     22 C          60.0693   87.0825   10.0703 C.3     1  UNL1        0.1202
     23 C          62.4953   84.0688    5.4842 C.3     1  UNL1        0.0310
     24 C          61.8888   84.8222    6.6307 C.ar    1  UNL1       -0.0219
     25 C          62.7229   85.1613    7.8303 C.ar    1  UNL1       -0.0045
     26 C          62.1164   85.9147    8.9769 C.ar    1  UNL1       -0.0029
     27 C          60.6758   86.3291    8.9238 C.ar    1  UNL1       -0.0024
     28 C          59.8417   85.9900    7.7241 C.ar    1  UNL1       -0.0029
     29 C          60.4481   85.2366    6.5776 C.ar    1  UNL1       -0.0045
@<TRIPOS>BOND
     1    23    24    1
     2    24    25   ar
     3    25    26   ar
     4    26    27   ar
     5    27    22    1
     6    22    16    1
     7    16    17    1
     8    17    18    1
     9    18    19    1
    10    19     1    1
    11     1     2    1
    12     2     3    1
    13     3     4    1
    14     4     8    1
    15     8     9   ar
    16     9    10   ar
    17    10    11   ar
    18    11    12    1
    19    11    13   ar
    20    13    14   ar
    21     4     5    1
    22     5     6    1
    23     5     7    1
    24    19    20    1
    25    20    21    2
    26    27    28   ar
    27    28    29   ar
    28    29    24   ar
    29    20    16   am
    30     7     1    1
    31    14     8   ar
    32    12    15    1
@<TRIPOS>MOLECULE
*****
 29 32 0 0 0
SMALL
GASTEIGER

@<TRIPOS>ATOM
      1 N          63.3324   85.8200   14.3289 N.3     1  UNL1       -0.2641
      2 C          63.5113   84.5536   15.1127 C.3     1  UNL1        0.0730
      3 C          63.4087   83.2248   14.4246 C.3     1  UNL1        0.0245
      4 C          63.1271   83.1622   12.9526 C.3     1  UNL1        0.0577
      5 C          62.9481   84.4286   12.1687 C.3     1  UNL1        0.1808
      6 F          62.6666   84.3660   10.6967 F       1  UNL1       -0.2354
      7 C          63.0508   85.7574   12.8569 C.3     1  UNL1        0.1084
      8 C          63.0245   81.8333   12.2644 C.ar    1  UNL1       -0.0196
      9 C          62.6181   80.6160   13.0408 C.ar    1  UNL1       -0.0011
     10 C          62.5154   79.2871   12.3527 C.ar    1  UNL1        0.0363
     11 C          62.8192   79.1757   10.8880 C.ar    1  UNL1        0.1337
     12 O          62.7166   77.8468   10.1998 O.3     1  UNL1       -0.5055
     13 C          63.2257   80.3930   10.1115 C.ar    1  UNL1        0.0363
     14 C          63.3283   81.7218   10.7996 C.ar    1  UNL1       -0.0011
     15 H          62.4627   77.0864   10.6848 H       1  UNL1        0.2922
     16 N          63.7139   89.5267   15.4150 N.am    1  UNL1       -0.2743
     17 C          63.4720   88.8607   16.7371 C.3     1  UNL1        0.0957
     18 C          63.2996   87.3910   16.4912 C.3     1  UNL1        0.0468
     19 C          63.4350   87.1487   15.0171 C.3     1  UNL1        0.1368
     20 C          63.6911   88.4686   14.3520 C.2     1  UNL1        0.2404
     21 O          63.8895   88.6914   12.8820 O.2     1  UNL1       -0.2734
     22 C          63.9392   90.9932   15.1946 C.3     1  UNL1        0.1202
     23 C          69.5148   93.2094   15.2214 C.3     1  UNL1        0.0310
     24 C          68.1209   92.6554   15.2147 C.ar    1  UNL1       -0.0219
     25 C          67.1989   92.9307   16.3653 C.ar    1  UNL1       -0.0045
     26 C          65.8050   92.3767   16.3586 C.ar    1  UNL1       -0.0029
     27 C          65.3331   91.5473   15.2013 C.ar    1  UNL1       -0.0024
     28 C          66.2551   91.2719   14.0507 C.ar    1  UNL1       -0.0029
     29 C          67.6491   91.8259   14.0574 C.ar    1  UNL1       -0.0045
@<TRIPOS>BOND
     1    23    24    1
     2    24    25   ar
     3    25    26   ar
     4    26    27   ar
     5    27    22    1
     6    22    16    1
     7    16    17    1
     8    17    18    1
     9    18    19    1
    10    19     1    1
    11     1     2    1
    12     2     3    1
    13     3     4    1
    14     4     8    1
    15     8     9   ar
    16     9    10   ar
    17    10    11   ar
    18    11    12    1
    19    11    13   ar
    20    13    14   ar
    21     4     5    1
    22     5     6    1
    23     5     7    1
    24    19    20    1
    25    20    21    2
    26    27    28   ar
    27    28    29   ar
    28    29    24   ar
    29    20    16   am
    30     7     1    1
    31    14     8   ar
    32    12    15    1
@<TRIPOS>MOLECULE
*****
 29 32 0 0 0
SMALL
GASTEIGER

@<TRIPOS>ATOM
      1 N          63.2439   87.6633   12.3798 N.3     1  UNL1       -0.2641
      2 C          63.8413   86.9717   13.5692 C.3     1  UNL1        0.0730
      3 C          63.6422   85.4969   13.7575 C.3     1  UNL1        0.0245
      4 C          62.8457   84.7138   12.7564 C.3     1  UNL1        0.0577
      5 C          62.2483   85.4054   11.5669 C.3     1  UNL1        0.1808
      6 F          61.4518   84.6223   10.5657 F       1  UNL1       -0.2354
      7 C          62.4474   86.8802   11.3787 C.3     1  UNL1        0.1084
      8 C          62.6466   83.2390   12.9446 C.ar    1  UNL1       -0.0196
      9 C          61.9939   82.7236   14.1930 C.ar    1  UNL1       -0.0011
     10 C          61.7948   81.2489   14.3812 C.ar    1  UNL1        0.0363
     11 C          62.2484   80.2895   13.3211 C.ar    1  UNL1        0.1337
     12 O          62.0493   78.8148   13.5093 O.3     1  UNL1       -0.5055
     13 C          62.9010   80.8049   12.0727 C.ar    1  UNL1        0.0363
     14 C          63.1002   82.2796   11.8844 C.ar    1  UNL1       -0.0011
     15 H          61.6416   78.4928   14.2892 H       1  UNL1        0.2922
     16 N          64.1394   91.4366   12.5418 N.am    1  UNL1       -0.2743
     17 C          63.3595   91.3784   11.2618 C.3     1  UNL1        0.0957
     18 C          62.9291   89.9578   11.0453 C.3     1  UNL1        0.0468
     19 C          63.4430   89.1380   12.1915 C.3     1  UNL1        0.1368
     20 C          64.1909   90.0519   13.1164 C.2     1  UNL1        0.2404
     21 O          64.8711   89.6515   14.3920 O.2     1  UNL1       -0.2734
     22 C          64.7588   92.6638   13.1419 C.3     1  UNL1        0.1202
     23 C          69.7090   92.1903   16.4992 C.3     1  UNL1        0.0310
     24 C          68.4715   92.3087   15.6599 C.ar    1  UNL1       -0.0219
     25 C          67.1705   92.7038   16.2934 C.ar    1  UNL1       -0.0045
     26 C          65.9330   92.8221   15.4541 C.ar    1  UNL1       -0.0029
     27 C          65.9964   92.5454   13.9812 C.ar    1  UNL1       -0.0024
     28 C          67.2973   92.1503   13.3477 C.ar    1  UNL1       -0.0029
     29 C          68.5349   92.0320   14.1870 C.ar    1  UNL1       -0.0045
@<TRIPOS>BOND
     1    23    24    1
     2    24    25   ar
     3    25    26   ar
     4    26    27   ar
     5    27    22    1
     6    22    16    1
     7    16    17    1
     8    17    18    1
     9    18    19    1
    10    19     1    1
    11     1     2    1
    12     2     3    1
    13     3     4    1
    14     4     8    1
    15     8     9   ar
    16     9    10   ar
    17    10    11   ar
    18    11    12    1
    19    11    13   ar
    20    13    14   ar
    21     4     5    1
    22     5     6    1
    23     5     7    1
    24    19    20    1
    25    20    21    2
    26    27    28   ar
    27    28    29   ar
    28    29    24   ar
    29    20    16   am
    30     7     1    1
    31    14     8   ar
    32    12    15    1
@<TRIPOS>MOLECULE
*****
 29 32 0 0 0
SMALL
GASTEIGER

@<TRIPOS>ATOM
      1 N          63.3418   86.0868   14.3488 N.3     1  UNL1       -0.2641
      2 C          63.4513   84.8305   15.1610 C.3     1  UNL1        0.0730
      3 C          63.3351   83.4927   14.4926 C.3     1  UNL1        0.0245
      4 C          63.1093   83.4111   13.0120 C.3     1  UNL1        0.0577
      5 C          62.9997   84.6674   12.1996 C.3     1  UNL1        0.1808
      6 F          62.7739   84.5859   10.7190 F       1  UNL1       -0.2354
      7 C          63.1160   86.0052   12.8681 C.3     1  UNL1        0.1084
      8 C          62.9930   82.0733   12.3436 C.ar    1  UNL1       -0.0196
      9 C          63.4281   81.9069   10.9177 C.ar    1  UNL1       -0.0011
     10 C          63.3119   80.5691   10.2493 C.ar    1  UNL1        0.0363
     11 C          62.7605   79.3977   11.0069 C.ar    1  UNL1        0.1337
     12 O          62.6443   78.0599   10.3385 O.3     1  UNL1       -0.5055
     13 C          62.3254   79.5641   12.4327 C.ar    1  UNL1        0.0363
     14 C          62.4417   80.9018   13.1011 C.ar    1  UNL1       -0.0011
     15 H          62.9160   77.9560    9.4478 H       1  UNL1        0.2922
     16 N          63.8177   89.7960   15.3884 N.am    1  UNL1       -0.2743
     17 C          63.4561   89.1706   16.7030 C.3     1  UNL1        0.0957
     18 C          63.2338   87.7049   16.4736 C.3     1  UNL1        0.0468
     19 C          63.4580   87.4245   15.0171 C.3     1  UNL1        0.1368
     20 C          63.8189   88.7168   14.3464 C.2     1  UNL1        0.2404
     21 O          64.1269   88.8982   12.8897 O.2     1  UNL1       -0.2734
     22 C          64.1243   91.2458   15.1564 C.3     1  UNL1        0.1202
     23 C          67.2082   92.9186   10.2890 C.3     1  UNL1        0.0310
     24 C          66.4372   92.5004   11.5058 C.ar    1  UNL1       -0.0219
     25 C          67.1316   92.3841   12.8303 C.ar    1  UNL1       -0.0045
     26 C          66.3606   91.9659   14.0471 C.ar    1  UNL1       -0.0029
     27 C          64.8953   91.6640   13.9395 C.ar    1  UNL1       -0.0024
     28 C          64.2009   91.7803   12.6150 C.ar    1  UNL1       -0.0029
     29 C          64.9719   92.1985   11.3982 C.ar    1  UNL1       -0.0045
@<TRIPOS>BOND
     1    23    24    1
     2    24    25   ar
     3    25    26   ar
     4    26    27   ar
     5    27    22    1
     6    22    16    1
     7    16    17    1
     8    17    18    1
     9    18    19    1
    10    19     1    1
    11     1     2    1
    12     2     3    1
    13     3     4    1
    14     4     8    1
    15     8     9   ar
    16     9    10   ar
    17    10    11   ar
    18    11    12    1
    19    11    13   ar
    20    13    14   ar
    21     4     5    1
    22     5     6    1
    23     5     7    1
    24    19    20    1
    25    20    21    2
    26    27    28   ar
    27    28    29   ar
    28    29    24   ar
    29    20    16   am
    30     7     1    1
    31    14     8   ar
    32    12    15    1
@<TRIPOS>MOLECULE
*****
 29 32 0 0 0
SMALL
GASTEIGER

@<TRIPOS>ATOM
      1 N          63.8959   87.5674   13.6441 N.3     1  UNL1       -0.2641
      2 C          64.3768   86.6174   14.7006 C.3     1  UNL1        0.0730
      3 C          64.0437   85.1580   14.6048 C.3     1  UNL1        0.0245
      4 C          63.2298   84.6485   13.4524 C.3     1  UNL1        0.0577
      5 C          62.7489   85.5985   12.3958 C.3     1  UNL1        0.1808
      6 F          61.9349   85.0891   11.2435 F       1  UNL1       -0.2354
      7 C          63.0820   87.0579   12.4917 C.3     1  UNL1        0.1084
      8 C          62.8967   83.1891   13.3566 C.ar    1  UNL1       -0.0196
      9 C          63.3853   82.3834   12.1896 C.ar    1  UNL1       -0.0011
     10 C          63.0522   80.9239   12.0937 C.ar    1  UNL1        0.0363
     11 C          62.2305   80.2704   13.1651 C.ar    1  UNL1        0.1337
     12 O          61.8975   78.8109   13.0693 O.3     1  UNL1       -0.5055
     13 C          61.7420   81.0761   14.3321 C.ar    1  UNL1        0.0363
     14 C          62.0750   82.5354   14.4279 C.ar    1  UNL1       -0.0011
     15 H          62.2027   78.3076   12.3402 H       1  UNL1        0.2922
     16 N          64.4667   91.3806   13.1979 N.am    1  UNL1       -0.2743
     17 C          65.0164   91.1646   14.5767 C.3     1  UNL1        0.0957
     18 C          64.8695   89.7099   14.9117 C.3     1  UNL1        0.0468
     19 C          64.2290   89.0267   13.7399 C.3     1  UNL1        0.1368
     20 C          63.9801   90.0593   12.6807 C.2     1  UNL1        0.2404
     21 O          63.3544   89.8137   11.3397 O.2     1  UNL1       -0.2734
     22 C          64.4130   92.6882   12.4649 C.3     1  UNL1        0.1202
     23 C          68.5799   93.9940    8.3500 C.3     1  UNL1        0.0310
     24 C          67.5382   93.6676    9.3787 C.ar    1  UNL1       -0.0219
     25 C          66.4607   94.6615    9.6967 C.ar    1  UNL1       -0.0045
     26 C          65.4190   94.3350   10.7254 C.ar    1  UNL1       -0.0029
     27 C          65.4548   93.0147   11.4362 C.ar    1  UNL1       -0.0024
     28 C          66.5322   92.0207   11.1183 C.ar    1  UNL1       -0.0029
     29 C          67.5740   92.3472   10.0895 C.ar    1  UNL1       -0.0045
@<TRIPOS>BOND
     1    23    24    1
     2    24    25   ar
     3    25    26   ar
     4    26    27   ar
     5    27    22    1
     6    22    16    1
     7    16    17    1
     8    17    18    1
     9    18    19    1
    10    19     1    1
    11     1     2    1
    12     2     3    1
    13     3     4    1
    14     4     8    1
    15     8     9   ar
    16     9    10   ar
    17    10    11   ar
    18    11    12    1
    19    11    13   ar
    20    13    14   ar
    21     4     5    1
    22     5     6    1
    23     5     7    1
    24    19    20    1
    25    20    21    2
    26    27    28   ar
    27    28    29   ar
    28    29    24   ar
    29    20    16   am
    30     7     1    1
    31    14     8   ar
    32    12    15    1
@<TRIPOS>MOLECULE
*****
 29 32 0 0 0
SMALL
GASTEIGER

@<TRIPOS>ATOM
      1 N          59.5989   90.1311    5.9961 N.3     1  UNL1       -0.2641
      2 C          58.3458   90.8505    5.5934 C.3     1  UNL1        0.0730
      3 C          58.3932   91.8948    4.5177 C.3     1  UNL1        0.0245
      4 C          59.6937   92.2197    3.8446 C.3     1  UNL1        0.0577
      5 C          60.9469   91.5003    4.2473 C.3     1  UNL1        0.1808
      6 F          62.2474   91.8253    3.5742 F       1  UNL1       -0.2354
      7 C          60.8994   90.4561    5.3230 C.3     1  UNL1        0.1084
      8 C          59.7411   93.2640    2.7688 C.ar    1  UNL1       -0.0196
      9 C          60.2642   94.6355    3.0775 C.ar    1  UNL1       -0.0011
     10 C          60.3116   95.6798    2.0017 C.ar    1  UNL1        0.0363
     11 C          59.8358   95.3524    0.6173 C.ar    1  UNL1        0.1337
     12 O          59.8832   96.3967   -0.4585 O.3     1  UNL1       -0.5055
     13 C          59.3127   93.9809    0.3087 C.ar    1  UNL1        0.0363
     14 C          59.2654   92.9367    1.3843 C.ar    1  UNL1       -0.0011
     15 H          60.2100   97.2535   -0.2656 H       1  UNL1        0.2922
     16 N          59.9958   87.8581    9.1172 N.am    1  UNL1       -0.2743
     17 C          58.9615   87.1017    8.3374 C.3     1  UNL1        0.0957
     18 C          58.6869   87.8611    7.0732 C.3     1  UNL1        0.0468
     19 C          59.5516   89.0869    7.0718 C.3     1  UNL1        0.1368
     20 C          60.3604   89.0850    8.3350 C.2     1  UNL1        0.2404
     21 O          61.3587   90.1271    8.7443 O.2     1  UNL1       -0.2734
     22 C          60.5654   87.4579   10.4458 C.3     1  UNL1        0.1202
     23 C          64.4683   82.9138   10.7908 C.3     1  UNL1        0.0310
     24 C          63.4925   84.0498   10.7046 C.ar    1  UNL1       -0.0219
     25 C          62.8117   84.5495   11.9442 C.ar    1  UNL1       -0.0045
     26 C          61.8360   85.6855   11.8580 C.ar    1  UNL1       -0.0029
     27 C          61.5411   86.3219   10.5321 C.ar    1  UNL1       -0.0024
     28 C          62.2219   85.8222    9.2924 C.ar    1  UNL1       -0.0029
     29 C          63.1976   84.6861    9.3787 C.ar    1  UNL1       -0.0045
@<TRIPOS>BOND
     1    23    24    1
     2    24    25   ar
     3    25    26   ar
     4    26    27   ar
     5    27    22    1
     6    22    16    1
     7    16    17    1
     8    17    18    1
     9    18    19    1
    10    19     1    1
    11     1     2    1
    12     2     3    1
    13     3     4    1
    14     4     8    1
    15     8     9   ar
    16     9    10   ar
    17    10    11   ar
    18    11    12    1
    19    11    13   ar
    20    13    14   ar
    21     4     5    1
    22     5     6    1
    23     5     7    1
    24    19    20    1
    25    20    21    2
    26    27    28   ar
    27    28    29   ar
    28    29    24   ar
    29    20    16   am
    30     7     1    1
    31    14     8   ar
    32    12    15    1
