@<TRIPOS>MOLECULE
*****
 33 37 0 0 0
SMALL
GASTEIGER

@<TRIPOS>ATOM
      1 C          63.0877   89.1215   12.6247 C.ar    1  UNL1        0.3235
      2 N          63.5142   87.8018   13.1960 N.ar    1  UNL1       -0.1753
      3 C          63.0459   86.5244   12.5642 C.ar    1  UNL1        0.1665
      4 N          62.1512   86.5668   11.3610 N.ar    1  UNL1       -0.1946
      5 C          61.7247   87.8866   10.7897 C.ar    1  UNL1        0.2255
      6 N          62.1929   89.1639   11.4215 N.ar    1  UNL1       -0.1610
      7 C          63.4725   85.2047   13.1355 C.2     1  UNL1        0.0249
      8 C          63.4973   85.0037   14.6218 C.2     1  UNL1       -0.0005
      9 C          63.9238   83.6841   15.1931 C.2     1  UNL1        0.0011
     10 C          64.3256   82.5653   14.2782 C.2     1  UNL1        0.0172
     11 C          64.3007   82.7663   12.7920 C.2     1  UNL1        0.0900
     12 N          64.6395   81.8545   11.6501 N.2     1  UNL1       -0.1519
     13 N          64.4224   82.6107   10.3730 N.2     1  UNL1       -0.1507
     14 C          63.9494   83.9898   10.7256 C.2     1  UNL1        0.1058
     15 C          63.8742   84.0860   12.2206 C.3     1  UNL1        0.1103
     16 N          60.8299   87.9290    9.5866 N.pl3   1  UNL1       -0.2729
     17 C          60.5081   89.2423    8.9370 C.3     1  UNL1        0.1257
     18 C          59.6133   89.2846    7.7338 C.3     1  UNL1        0.1637
     19 O          59.0404   88.0137    7.1803 O.3     1  UNL1       -0.3501
     20 C          59.3621   86.7005    7.8298 C.3     1  UNL1        0.1637
     21 C          60.2569   86.6581    9.0329 C.3     1  UNL1        0.1257
     22 O          63.5559   90.3988   13.2565 O.3     1  UNL1       -0.4504
     23 C          66.1691   93.2320   10.9340 C.3     1  UNL1        0.0770
     24 C          65.0126   92.5550   10.2601 C.3     1  UNL1        0.0128
     25 C          64.1415   91.6106   11.0342 C.3     1  UNL1        0.0441
     26 C          64.4269   91.3432   12.4823 C.3     1  UNL1        0.1691
     27 C          65.5835   92.0202   13.1562 C.3     1  UNL1        0.0441
     28 C          66.4545   92.9646   12.3821 C.3     1  UNL1        0.0128
     29 C          67.4503   96.5245    9.1263 C.3     1  UNL1        0.1149
     30 N          66.5793   95.5801    9.9004 N.am    1  UNL1       -0.2760
     31 C          65.2474   96.0394   10.4153 C.3     1  UNL1        0.1149
     32 C          67.0401   94.1764   10.1598 C.2     1  UNL1        0.2252
     33 O          68.3720   93.7171    9.6450 O.2     1  UNL1       -0.2749
@<TRIPOS>BOND
     1    29    30    1
     2    30    31    1
     3    30    32   am
     4    32    33    2
     5    23    32    1
     6    23    24    1
     7    24    25    1
     8    25    26    1
     9    26    22    1
    10    22     1    1
    11     1     2   ar
    12     2     3   ar
    13     3     7    1
    14     7     8    2
    15     8     9    1
    16     9    10    2
    17    10    11    1
    18    11    12    2
    19    12    13    1
    20    13    14    2
    21    14    15    1
    22     3     4   ar
    23     4     5   ar
    24     5    16    1
    25    16    17    1
    26    17    18    1
    27    18    19    1
    28    19    20    1
    29    20    21    1
    30     5     6   ar
    31    26    27    1
    32    27    28    1
    33    28    23    1
    34     6     1   ar
    35    15     7    1
    36    21    16    1
    37    15    11    1
@<TRIPOS>MOLECULE
*****
 33 37 0 0 0
SMALL
GASTEIGER

@<TRIPOS>ATOM
      1 C          62.8888   88.4060   12.3457 C.ar    1  UNL1        0.3235
      2 N          63.3023   86.9950   12.6420 N.ar    1  UNL1       -0.1753
      3 C          62.7898   85.8693   11.7932 C.ar    1  UNL1        0.1665
      4 N          61.8638   86.1547   10.6482 N.ar    1  UNL1       -0.1946
      5 C          61.4503   87.5659   10.3520 C.ar    1  UNL1        0.2255
      6 N          61.9627   88.6915   11.2007 N.ar    1  UNL1       -0.1610
      7 C          63.2034   84.4582   12.0895 C.2     1  UNL1        0.0249
      8 C          63.6331   83.5526   10.9737 C.2     1  UNL1       -0.0005
      9 C          64.0466   82.1415   11.2699 C.2     1  UNL1        0.0011
     10 C          64.0306   81.6360   12.6822 C.2     1  UNL1        0.0172
     11 C          63.6009   82.5417   13.7980 C.2     1  UNL1        0.0900
     12 N          63.4840   82.3253   15.2777 N.2     1  UNL1       -0.1519
     13 N          62.9981   83.6027   15.8959 N.2     1  UNL1       -0.1507
     14 C          62.8148   84.6085   14.7983 C.2     1  UNL1        0.1058
     15 C          63.1873   83.9527   13.5017 C.3     1  UNL1        0.1103
     16 N          60.5243   87.8513    9.2070 N.pl3   1  UNL1       -0.2729
     17 C          60.3859   89.2509    8.6852 C.3     1  UNL1        0.1257
     18 C          59.4599   89.5363    7.5402 C.3     1  UNL1        0.1637
     19 O          58.6723   88.4222    6.9170 O.3     1  UNL1       -0.3501
     20 C          58.8107   87.0227    7.4387 C.3     1  UNL1        0.1637
     21 C          59.7367   86.7372    8.5837 C.3     1  UNL1        0.1257
     22 O          63.4012   89.5317   13.1944 O.3     1  UNL1       -0.4504
     23 C          65.3399   93.1039   11.2628 C.3     1  UNL1        0.0770
     24 C          64.3609   92.2718   10.4887 C.3     1  UNL1        0.0128
     25 C          63.7147   91.0810   11.1326 C.3     1  UNL1        0.0441
     26 C          64.0474   90.7224   12.5505 C.3     1  UNL1        0.1691
     27 C          65.0264   91.5545   13.3246 C.3     1  UNL1        0.0441
     28 C          65.6726   92.7452   12.6808 C.3     1  UNL1        0.0128
     29 C          67.8457   95.3047    9.1119 C.3     1  UNL1        0.1149
     30 N          67.1995   94.1141    9.7557 N.am    1  UNL1       -0.2760
     31 C          67.7666   92.7429    9.5364 C.3     1  UNL1        0.1149
     32 C          65.9861   94.2945   10.6190 C.2     1  UNL1        0.2252
     33 O          65.4189   95.6657   10.8383 O.2     1  UNL1       -0.2749
@<TRIPOS>BOND
     1    29    30    1
     2    30    31    1
     3    30    32   am
     4    32    33    2
     5    23    32    1
     6    23    24    1
     7    24    25    1
     8    25    26    1
     9    26    22    1
    10    22     1    1
    11     1     2   ar
    12     2     3   ar
    13     3     7    1
    14     7     8    2
    15     8     9    1
    16     9    10    2
    17    10    11    1
    18    11    12    2
    19    12    13    1
    20    13    14    2
    21    14    15    1
    22     3     4   ar
    23     4     5   ar
    24     5    16    1
    25    16    17    1
    26    17    18    1
    27    18    19    1
    28    19    20    1
    29    20    21    1
    30     5     6   ar
    31    26    27    1
    32    27    28    1
    33    28    23    1
    34     6     1   ar
    35    15     7    1
    36    21    16    1
    37    15    11    1
@<TRIPOS>MOLECULE
*****
 33 37 0 0 0
SMALL
GASTEIGER

@<TRIPOS>ATOM
      1 C          63.9899   87.7995   14.3261 C.ar    1  UNL1        0.3235
      2 N          64.7441   89.0750   14.5583 N.ar    1  UNL1       -0.1753
      3 C          64.6013   90.2167   13.5958 C.ar    1  UNL1        0.1665
      4 N          63.7043   90.0827   12.4011 N.ar    1  UNL1       -0.1946
      5 C          62.9500   88.8070   12.1690 C.ar    1  UNL1        0.2255
      6 N          63.0928   87.6654   13.1314 N.ar    1  UNL1       -0.1610
      7 C          65.3556   91.4922   13.8281 C.2     1  UNL1        0.0249
      8 C          65.8431   91.8353   15.2045 C.2     1  UNL1       -0.0005
      9 C          66.5974   93.1108   15.4368 C.2     1  UNL1        0.0011
     10 C          66.8643   94.0434   14.2926 C.2     1  UNL1        0.0172
     11 C          66.3768   93.7003   12.9161 C.2     1  UNL1        0.0900
     12 N          66.4888   94.4182   11.6038 N.2     1  UNL1       -0.1519
     13 N          65.8037   93.5862   10.5605 N.2     1  UNL1       -0.1507
     14 C          65.2683   92.3542   11.2280 C.2     1  UNL1        0.1058
     15 C          65.6225   92.4247   12.6839 C.3     1  UNL1        0.1103
     16 N          62.0529   88.6731   10.9743 N.pl3   1  UNL1       -0.2729
     17 C          61.1342   89.7971   10.5964 C.3     1  UNL1        0.1257
     18 C          60.2371   89.6631    9.4016 C.3     1  UNL1        0.1637
     19 O          60.2588   88.4051    8.5849 O.3     1  UNL1       -0.3501
     20 C          61.1774   87.2812    8.9628 C.3     1  UNL1        0.1637
     21 C          62.0745   87.4151   10.1575 C.3     1  UNL1        0.1257
     22 O          64.1327   86.6579   15.2886 O.3     1  UNL1       -0.4504
     23 C          63.3648   82.4435   13.9102 C.3     1  UNL1        0.0770
     24 C          62.3732   83.1345   14.7986 C.3     1  UNL1        0.0128
     25 C          62.6291   84.5393   15.2581 C.3     1  UNL1        0.0441
     26 C          63.8767   85.2531   14.8291 C.3     1  UNL1        0.1691
     27 C          64.8683   84.5621   13.9408 C.3     1  UNL1        0.0441
     28 C          64.6124   83.1574   13.4813 C.3     1  UNL1        0.0128
     29 C          62.7089   79.3380   11.5279 C.3     1  UNL1        0.1149
     30 N          62.9648   80.7427   11.9873 N.am    1  UNL1       -0.2760
     31 C          63.0768   81.8516   10.9834 C.3     1  UNL1        0.1149
     32 C          63.1089   81.0388   13.4508 C.2     1  UNL1        0.2252
     33 O          62.9969   79.9300   14.4548 O.2     1  UNL1       -0.2749
@<TRIPOS>BOND
     1    29    30    1
     2    30    31    1
     3    30    32   am
     4    32    33    2
     5    23    32    1
     6    23    24    1
     7    24    25    1
     8    25    26    1
     9    26    22    1
    10    22     1    1
    11     1     2   ar
    12     2     3   ar
    13     3     7    1
    14     7     8    2
    15     8     9    1
    16     9    10    2
    17    10    11    1
    18    11    12    2
    19    12    13    1
    20    13    14    2
    21    14    15    1
    22     3     4   ar
    23     4     5   ar
    24     5    16    1
    25    16    17    1
    26    17    18    1
    27    18    19    1
    28    19    20    1
    29    20    21    1
    30     5     6   ar
    31    26    27    1
    32    27    28    1
    33    28    23    1
    34     6     1   ar
    35    15     7    1
    36    21    16    1
    37    15    11    1
@<TRIPOS>MOLECULE
*****
 33 37 0 0 0
SMALL
GASTEIGER

@<TRIPOS>ATOM
      1 C          64.1834   88.0385   14.4476 C.ar    1  UNL1        0.3235
      2 N          63.2237   87.9396   13.2992 N.ar    1  UNL1       -0.1753
      3 C          63.0567   89.0969   12.3595 C.ar    1  UNL1        0.1665
      4 N          63.8495   90.3530   12.5683 N.ar    1  UNL1       -0.1946
      5 C          64.8093   90.4519   13.7169 C.ar    1  UNL1        0.2255
      6 N          64.9763   89.2947   14.6565 N.ar    1  UNL1       -0.1610
      7 C          62.0970   88.9980   11.2110 C.2     1  UNL1        0.0249
      8 C          61.4316   90.2335   10.6810 C.2     1  UNL1       -0.0005
      9 C          60.4719   90.1346    9.5326 C.2     1  UNL1        0.0011
     10 C          60.1774   88.8002    8.9139 C.2     1  UNL1        0.0172
     11 C          60.8427   87.5647    9.4439 C.2     1  UNL1        0.0900
     12 N          60.7498   86.1230    9.0403 N.2     1  UNL1       -0.1519
     13 N          61.6521   85.3309    9.9394 N.2     1  UNL1       -0.1507
     14 C          62.3027   86.2830   10.8986 C.2     1  UNL1        0.1058
     15 C          61.8025   87.6636   10.5924 C.3     1  UNL1        0.1103
     16 N          65.6021   91.7080   13.9257 N.pl3   1  UNL1       -0.2729
     17 C          66.3196   91.9350   15.2233 C.3     1  UNL1        0.1257
     18 C          67.1125   93.1912   15.4321 C.3     1  UNL1        0.1637
     19 O          67.1877   94.2202   14.3434 O.3     1  UNL1       -0.3501
     20 C          66.4702   93.9932   13.0458 C.3     1  UNL1        0.1637
     21 C          65.6774   92.7371   12.8370 C.3     1  UNL1        0.1257
     22 O          64.3504   86.8813   15.3873 O.3     1  UNL1       -0.4504
     23 C          63.5214   82.6923   13.9676 C.3     1  UNL1        0.0770
     24 C          64.7890   83.3845   13.5625 C.3     1  UNL1        0.0128
     25 C          65.0654   84.7809   14.0357 C.3     1  UNL1        0.0441
     26 C          64.0741   85.4850   14.9141 C.3     1  UNL1        0.1691
     27 C          62.8065   84.7928   15.3192 C.3     1  UNL1        0.0441
     28 C          62.5302   83.3965   14.8460 C.3     1  UNL1        0.0128
     29 C          62.7325   79.6348   11.5638 C.3     1  UNL1        0.1149
     30 N          63.0088   81.0310   12.0370 N.am    1  UNL1       -0.2760
     31 C          63.0488   82.1623   11.0529 C.3     1  UNL1        0.1149
     32 C          63.2451   81.2961   13.4944 C.2     1  UNL1        0.2252
     33 O          63.2051   80.1648   14.4785 O.2     1  UNL1       -0.2749
@<TRIPOS>BOND
     1    29    30    1
     2    30    31    1
     3    30    32   am
     4    32    33    2
     5    23    32    1
     6    23    24    1
     7    24    25    1
     8    25    26    1
     9    26    22    1
    10    22     1    1
    11     1     2   ar
    12     2     3   ar
    13     3     7    1
    14     7     8    2
    15     8     9    1
    16     9    10    2
    17    10    11    1
    18    11    12    2
    19    12    13    1
    20    13    14    2
    21    14    15    1
    22     3     4   ar
    23     4     5   ar
    24     5    16    1
    25    16    17    1
    26    17    18    1
    27    18    19    1
    28    19    20    1
    29    20    21    1
    30     5     6   ar
    31    26    27    1
    32    27    28    1
    33    28    23    1
    34     6     1   ar
    35    15     7    1
    36    21    16    1
    37    15    11    1
@<TRIPOS>MOLECULE
*****
 33 37 0 0 0
SMALL
GASTEIGER

@<TRIPOS>ATOM
      1 C          63.4927   89.1960   12.9590 C.ar    1  UNL1        0.3235
      2 N          62.6382   89.2681   11.7284 N.ar    1  UNL1       -0.1753
      3 C          62.0963   88.0100   11.1168 C.ar    1  UNL1        0.1665
      4 N          62.4091   86.6801   11.7359 N.ar    1  UNL1       -0.1946
      5 C          63.2636   86.6081   12.9666 C.ar    1  UNL1        0.2255
      6 N          63.8054   87.8660   13.5782 N.ar    1  UNL1       -0.1610
      7 C          61.2418   88.0821    9.8861 C.2     1  UNL1        0.0249
      8 C          60.3809   89.2856    9.6402 C.2     1  UNL1       -0.0005
      9 C          59.5264   89.3577    8.4096 C.2     1  UNL1        0.0011
     10 C          59.5327   88.2262    7.4247 C.2     1  UNL1        0.0172
     11 C          60.3936   87.0227    7.6706 C.2     1  UNL1        0.0900
     12 N          60.6057   85.7629    6.8846 N.2     1  UNL1       -0.1519
     13 N          61.5913   84.9122    7.6295 N.2     1  UNL1       -0.1507
     14 C          61.9884   85.6463    8.8759 C.2     1  UNL1        0.1058
     15 C          61.2481   86.9507    8.9013 C.3     1  UNL1        0.1103
     16 N          63.5764   85.2781   13.5857 N.pl3   1  UNL1       -0.2729
     17 C          63.8807   84.0971   12.7123 C.3     1  UNL1        0.1257
     18 C          64.1935   82.7671   13.3315 C.3     1  UNL1        0.1637
     19 O          64.2019   82.6181   14.8240 O.3     1  UNL1       -0.3501
     20 C          63.8976   83.7990   15.6974 C.3     1  UNL1        0.1637
     21 C          63.5848   85.1290   15.0783 C.3     1  UNL1        0.1257
     22 O          64.0344   90.4540   13.5706 O.3     1  UNL1       -0.4504
     23 C          66.3682   93.3585   11.0472 C.3     1  UNL1        0.0770
     24 C          66.8013   93.0709   12.4542 C.3     1  UNL1        0.0128
     25 C          66.0234   92.1027   13.2954 C.3     1  UNL1        0.0441
     26 C          64.8124   91.4222   12.7295 C.3     1  UNL1        0.1691
     27 C          64.3793   91.7098   11.3225 C.3     1  UNL1        0.0441
     28 C          65.1571   92.6779   10.4813 C.3     1  UNL1        0.0128
     29 C          67.3442   96.6393    9.0388 C.3     1  UNL1        0.1149
     30 N          66.5663   95.6712    9.8799 N.am    1  UNL1       -0.2760
     31 C          65.2086   96.0474   10.3948 C.3     1  UNL1        0.1149
     32 C          67.1461   94.3267   10.2061 C.2     1  UNL1        0.2252
     33 O          68.5037   93.9505    9.6912 O.2     1  UNL1       -0.2749
@<TRIPOS>BOND
     1    29    30    1
     2    30    31    1
     3    30    32   am
     4    32    33    2
     5    23    32    1
     6    23    24    1
     7    24    25    1
     8    25    26    1
     9    26    22    1
    10    22     1    1
    11     1     2   ar
    12     2     3   ar
    13     3     7    1
    14     7     8    2
    15     8     9    1
    16     9    10    2
    17    10    11    1
    18    11    12    2
    19    12    13    1
    20    13    14    2
    21    14    15    1
    22     3     4   ar
    23     4     5   ar
    24     5    16    1
    25    16    17    1
    26    17    18    1
    27    18    19    1
    28    19    20    1
    29    20    21    1
    30     5     6   ar
    31    26    27    1
    32    27    28    1
    33    28    23    1
    34     6     1   ar
    35    15     7    1
    36    21    16    1
    37    15    11    1
@<TRIPOS>MOLECULE
*****
 33 37 0 0 0
SMALL
GASTEIGER

@<TRIPOS>ATOM
      1 C          63.3186   90.5547   12.7887 C.ar    1  UNL1        0.3235
      2 N          62.9830   89.4043   13.6908 N.ar    1  UNL1       -0.1753
      3 C          63.8821   89.0680   14.8436 C.ar    1  UNL1        0.1665
      4 N          65.1166   89.8823   15.0942 N.ar    1  UNL1       -0.1946
      5 C          65.4522   91.0327   14.1920 C.ar    1  UNL1        0.2255
      6 N          64.5532   91.3690   13.0393 N.ar    1  UNL1       -0.1610
      7 C          63.5464   87.9176   15.7457 C.2     1  UNL1        0.0249
      8 C          62.9719   88.1749   17.1072 C.2     1  UNL1       -0.0005
      9 C          62.6363   87.0245   18.0092 C.2     1  UNL1        0.0011
     10 C          62.8752   85.6166   17.5499 C.2     1  UNL1        0.0172
     11 C          63.4498   85.3593   16.1884 C.2     1  UNL1        0.0900
     12 N          63.7927   84.0895   15.4674 N.2     1  UNL1       -0.1519
     13 N          64.3403   84.4552   14.1197 N.2     1  UNL1       -0.1507
     14 C          64.3358   85.9510   14.0077 C.2     1  UNL1        0.1058
     15 C          63.7854   86.5098   15.2863 C.3     1  UNL1        0.1103
     16 N          66.6868   91.8470   14.4426 N.pl3   1  UNL1       -0.2729
     17 C          67.9075   91.6382   13.5962 C.3     1  UNL1        0.1257
     18 C          69.1422   92.4525   13.8469 C.3     1  UNL1        0.1637
     19 O          69.1560   93.4754   14.9438 O.3     1  UNL1       -0.3501
     20 C          67.9353   93.6842   15.7902 C.3     1  UNL1        0.1637
     21 C          66.7007   92.8699   15.5396 C.3     1  UNL1        0.1257
     22 O          62.4196   90.8909   11.6360 O.3     1  UNL1       -0.4504
     23 C          60.9989   87.6400    8.8677 C.3     1  UNL1        0.0770
     24 C          62.0848   87.3563    9.8628 C.3     1  UNL1        0.0128
     25 C          62.5584   88.4399   10.7856 C.3     1  UNL1        0.0441
     26 C          61.9460   89.8073   10.7133 C.3     1  UNL1        0.1691
     27 C          60.8601   90.0910    9.7182 C.3     1  UNL1        0.0441
     28 C          60.3865   89.0075    8.7954 C.3     1  UNL1        0.0128
     29 C          60.9937   84.3862    6.5957 C.3     1  UNL1        0.1149
     30 N          61.4673   85.4698    7.5184 N.am    1  UNL1       -0.2760
     31 C          62.8828   85.4668    8.0147 C.3     1  UNL1        0.1149
     32 C          60.5253   86.5565    7.9450 C.2     1  UNL1        0.2252
     33 O          59.1098   86.5595    7.4487 O.2     1  UNL1       -0.2749
@<TRIPOS>BOND
     1    29    30    1
     2    30    31    1
     3    30    32   am
     4    32    33    2
     5    23    32    1
     6    23    24    1
     7    24    25    1
     8    25    26    1
     9    26    22    1
    10    22     1    1
    11     1     2   ar
    12     2     3   ar
    13     3     7    1
    14     7     8    2
    15     8     9    1
    16     9    10    2
    17    10    11    1
    18    11    12    2
    19    12    13    1
    20    13    14    2
    21    14    15    1
    22     3     4   ar
    23     4     5   ar
    24     5    16    1
    25    16    17    1
    26    17    18    1
    27    18    19    1
    28    19    20    1
    29    20    21    1
    30     5     6   ar
    31    26    27    1
    32    27    28    1
    33    28    23    1
    34     6     1   ar
    35    15     7    1
    36    21    16    1
    37    15    11    1
@<TRIPOS>MOLECULE
*****
 33 37 0 0 0
SMALL
GASTEIGER

@<TRIPOS>ATOM
      1 C          62.5567   88.3474   11.2698 C.ar    1  UNL1        0.3235
      2 N          62.9584   87.4321   12.3881 N.ar    1  UNL1       -0.1753
      3 C          62.9579   85.9467   12.1784 C.ar    1  UNL1        0.1665
      4 N          62.5556   85.3768   10.8505 N.ar    1  UNL1       -0.1946
      5 C          62.1538   86.2923    9.7322 C.ar    1  UNL1        0.2255
      6 N          62.1543   87.7776    9.9418 N.ar    1  UNL1       -0.1610
      7 C          63.3597   85.0313   13.2967 C.2     1  UNL1        0.0249
      8 C          63.9571   85.5968   14.5510 C.2     1  UNL1       -0.0005
      9 C          64.3589   84.6815   15.6692 C.2     1  UNL1        0.0011
     10 C          64.1633   83.2005   15.5333 C.2     1  UNL1        0.0172
     11 C          63.5660   82.6349   14.2790 C.2     1  UNL1        0.0900
     12 N          63.2547   81.2283   13.8612 N.2     1  UNL1       -0.1519
     13 N          62.6605   81.2744   12.4847 N.2     1  UNL1       -0.1507
     14 C          62.6046   82.7095   12.0517 C.2     1  UNL1        0.1058
     15 C          63.1642   83.5503   13.1607 C.3     1  UNL1        0.1103
     16 N          61.7516   85.7225    8.4043 N.pl3   1  UNL1       -0.2729
     17 C          62.7596   84.9968    7.5631 C.3     1  UNL1        0.1257
     18 C          62.3572   84.4270    6.2351 C.3     1  UNL1        0.1637
     19 O          60.9470   84.5828    5.7484 O.3     1  UNL1       -0.3501
     20 C          59.9390   85.3084    6.5895 C.3     1  UNL1        0.1637
     21 C          60.3413   85.8782    7.9175 C.3     1  UNL1        0.1257
     22 O          62.5571   89.8327   11.4795 O.3     1  UNL1       -0.4504
     23 C          65.5423   91.7094   14.2755 C.3     1  UNL1        0.0770
     24 C          65.3249   92.2910   12.9100 C.3     1  UNL1        0.0128
     25 C          64.3298   91.6655   11.9780 C.3     1  UNL1        0.0441
     26 C          63.5522   90.4583   12.4114 C.3     1  UNL1        0.1691
     27 C          63.7696   89.8767   13.7769 C.3     1  UNL1        0.0441
     28 C          64.7645   90.5021   14.7089 C.3     1  UNL1        0.0128
     29 C          68.9759   93.0536   15.7427 C.3     1  UNL1        0.1149
     30 N          67.9809   92.4281   14.8108 N.am    1  UNL1       -0.2760
     31 C          68.4294   91.8957   13.4821 C.3     1  UNL1        0.1149
     32 C          66.5372   92.3349   15.2074 C.2     1  UNL1        0.2252
     33 O          66.0887   92.8673   16.5361 O.2     1  UNL1       -0.2749
@<TRIPOS>BOND
     1    29    30    1
     2    30    31    1
     3    30    32   am
     4    32    33    2
     5    23    32    1
     6    23    24    1
     7    24    25    1
     8    25    26    1
     9    26    22    1
    10    22     1    1
    11     1     2   ar
    12     2     3   ar
    13     3     7    1
    14     7     8    2
    15     8     9    1
    16     9    10    2
    17    10    11    1
    18    11    12    2
    19    12    13    1
    20    13    14    2
    21    14    15    1
    22     3     4   ar
    23     4     5   ar
    24     5    16    1
    25    16    17    1
    26    17    18    1
    27    18    19    1
    28    19    20    1
    29    20    21    1
    30     5     6   ar
    31    26    27    1
    32    27    28    1
    33    28    23    1
    34     6     1   ar
    35    15     7    1
    36    21    16    1
    37    15    11    1
@<TRIPOS>MOLECULE
*****
 33 37 0 0 0
SMALL
GASTEIGER

@<TRIPOS>ATOM
      1 C          63.6241   87.9548   13.2869 C.ar    1  UNL1        0.3235
      2 N          62.8045   88.4869   12.1490 N.ar    1  UNL1       -0.1753
      3 C          62.1106   87.5385   11.2167 C.ar    1  UNL1        0.1665
      4 N          62.2364   86.0580   11.4224 N.ar    1  UNL1       -0.1946
      5 C          63.0561   85.5259   12.5604 C.ar    1  UNL1        0.2255
      6 N          63.7500   86.4743   13.4927 N.ar    1  UNL1       -0.1610
      7 C          61.2909   88.0707   10.0787 C.2     1  UNL1        0.0249
      8 C          60.9395   89.5279   10.0247 C.2     1  UNL1       -0.0005
      9 C          60.1199   90.0601    8.8868 C.2     1  UNL1        0.0011
     10 C          59.6516   89.1350    7.8028 C.2     1  UNL1        0.0172
     11 C          60.0030   87.6778    7.8568 C.2     1  UNL1        0.0900
     12 N          59.6855   86.5341    6.9396 N.2     1  UNL1       -0.1519
     13 N          60.3089   85.2952    7.5107 N.2     1  UNL1       -0.1507
     14 C          61.0118   85.6730    8.7809 C.2     1  UNL1        0.1058
     15 C          60.8226   87.1456    8.9948 C.3     1  UNL1        0.1103
     16 N          63.1818   84.0455   12.7660 N.pl3   1  UNL1       -0.2729
     17 C          62.9335   83.1057   11.6235 C.3     1  UNL1        0.1257
     18 C          63.0593   81.6252   11.8292 C.3     1  UNL1        0.1637
     19 O          63.4334   81.0845   13.1774 O.3     1  UNL1       -0.3501
     20 C          63.6817   82.0242   14.3199 C.3     1  UNL1        0.1637
     21 C          63.5560   83.5046   14.1142 C.3     1  UNL1        0.1257
     22 O          64.3180   88.9031   14.2192 O.3     1  UNL1       -0.4504
     23 C          65.7475   92.8959   12.7141 C.3     1  UNL1        0.0770
     24 C          64.5898   92.2138   12.0475 C.3     1  UNL1        0.0128
     25 C          64.1132   90.8828   12.5492 C.3     1  UNL1        0.0441
     26 C          64.7945   90.2340   13.7175 C.3     1  UNL1        0.1691
     27 C          65.9522   90.9162   14.3841 C.3     1  UNL1        0.0441
     28 C          66.4288   92.2470   13.8825 C.3     1  UNL1        0.0128
     29 C          67.1635   95.7020   10.2914 C.3     1  UNL1        0.1149
     30 N          66.6871   94.3712   10.7930 N.am    1  UNL1       -0.2760
     31 C          66.6737   93.1848    9.8754 C.3     1  UNL1        0.1149
     32 C          66.2239   94.2267   12.2125 C.2     1  UNL1        0.2252
     33 O          66.2373   95.4131   13.1301 O.2     1  UNL1       -0.2749
@<TRIPOS>BOND
     1    29    30    1
     2    30    31    1
     3    30    32   am
     4    32    33    2
     5    23    32    1
     6    23    24    1
     7    24    25    1
     8    25    26    1
     9    26    22    1
    10    22     1    1
    11     1     2   ar
    12     2     3   ar
    13     3     7    1
    14     7     8    2
    15     8     9    1
    16     9    10    2
    17    10    11    1
    18    11    12    2
    19    12    13    1
    20    13    14    2
    21    14    15    1
    22     3     4   ar
    23     4     5   ar
    24     5    16    1
    25    16    17    1
    26    17    18    1
    27    18    19    1
    28    19    20    1
    29    20    21    1
    30     5     6   ar
    31    26    27    1
    32    27    28    1
    33    28    23    1
    34     6     1   ar
    35    15     7    1
    36    21    16    1
    37    15    11    1
@<TRIPOS>MOLECULE
*****
 33 37 0 0 0
SMALL
GASTEIGER

@<TRIPOS>ATOM
      1 C          63.6963   88.3347   13.3158 C.ar    1  UNL1        0.3235
      2 N          64.4153   89.6508   13.2968 N.ar    1  UNL1       -0.1753
      3 C          64.1811   90.6173   12.1736 C.ar    1  UNL1        0.1665
      4 N          63.2279   90.2674   11.0696 N.ar    1  UNL1       -0.1946
      5 C          62.5088   88.9511   11.0887 C.ar    1  UNL1        0.2255
      6 N          62.7430   87.9847   12.2117 N.ar    1  UNL1       -0.1610
      7 C          64.9002   91.9336   12.1546 C.2     1  UNL1        0.0249
      8 C          64.8665   92.7889   10.9229 C.2     1  UNL1       -0.0005
      9 C          65.5856   94.1051   10.9038 C.2     1  UNL1        0.0011
     10 C          66.3384   94.5661   12.1166 C.2     1  UNL1        0.0172
     11 C          66.3721   93.7108   13.3484 C.2     1  UNL1        0.0900
     12 N          67.0262   93.9011   14.6848 N.2     1  UNL1       -0.1519
     13 N          66.7113   92.7024   15.5298 N.2     1  UNL1       -0.1507
     14 C          65.8626   91.7713   14.7156 C.2     1  UNL1        0.1058
     15 C          65.6530   92.3945   13.3674 C.3     1  UNL1        0.1103
     16 N          61.5555   88.6012    9.9847 N.pl3   1  UNL1       -0.2729
     17 C          60.7476   89.6776    9.3221 C.3     1  UNL1        0.1257
     18 C          59.7944   89.3276    8.2180 C.3     1  UNL1        0.1637
     19 O          59.6490   87.9015    7.7766 O.3     1  UNL1       -0.3501
     20 C          60.4569   86.8252    8.4391 C.3     1  UNL1        0.1637
     21 C          61.4101   87.1751    9.5432 C.3     1  UNL1        0.1257
     22 O          63.9304   87.3683   14.4388 O.3     1  UNL1       -0.4504
     23 C          62.5559   83.1002   14.0579 C.3     1  UNL1        0.0770
     24 C          62.8033   83.6903   15.4146 C.3     1  UNL1        0.0128
     25 C          63.2615   85.1130   15.5416 C.3     1  UNL1        0.0441
     26 C          63.4722   85.9456   14.3119 C.3     1  UNL1        0.1691
     27 C          63.2248   85.3556   12.9552 C.3     1  UNL1        0.0441
     28 C          62.7667   83.9330   12.8281 C.3     1  UNL1        0.0128
     29 C          62.4796   79.2602   13.0591 C.3     1  UNL1        0.1149
     30 N          62.9377   80.6828   13.1861 N.am    1  UNL1       -0.2760
     31 C          64.2359   81.1106   12.5684 C.3     1  UNL1        0.1149
     32 C          62.0977   81.6777   13.9309 C.2     1  UNL1        0.2252
     33 O          60.7995   81.2498   14.5486 O.2     1  UNL1       -0.2749
@<TRIPOS>BOND
     1    29    30    1
     2    30    31    1
     3    30    32   am
     4    32    33    2
     5    23    32    1
     6    23    24    1
     7    24    25    1
     8    25    26    1
     9    26    22    1
    10    22     1    1
    11     1     2   ar
    12     2     3   ar
    13     3     7    1
    14     7     8    2
    15     8     9    1
    16     9    10    2
    17    10    11    1
    18    11    12    2
    19    12    13    1
    20    13    14    2
    21    14    15    1
    22     3     4   ar
    23     4     5   ar
    24     5    16    1
    25    16    17    1
    26    17    18    1
    27    18    19    1
    28    19    20    1
    29    20    21    1
    30     5     6   ar
    31    26    27    1
    32    27    28    1
    33    28    23    1
    34     6     1   ar
    35    15     7    1
    36    21    16    1
    37    15    11    1
