@<TRIPOS>MOLECULE
*****
 43 48 0 0 0
SMALL
GASTEIGER

@<TRIPOS>ATOM
      1 C          59.2068   88.5612    7.2623 C.2     1  UNL1        0.2252
      2 O          58.2057   87.4769    6.9940 O.2     1  UNL1       -0.2749
      3 N          60.0990   88.4771    8.4652 N.am    1  UNL1       -0.2794
      4 C          59.9901   87.3088    9.3996 C.3     1  UNL1        0.0953
      5 C          60.8823   87.2248   10.6025 C.3     1  UNL1        0.0442
      6 C          61.8835   88.3091   10.8709 C.3     1  UNL1        0.0933
      7 C          61.9924   89.4773    9.9365 C.3     1  UNL1        0.0442
      8 C          61.1002   89.5614    8.7336 C.3     1  UNL1        0.0953
      9 N          62.7757   88.2251   12.0738 N.ar    1  UNL1       -0.2817
     10 C          63.1234   86.9761   12.8281 C.ar    1  UNL1        0.3315
     11 O          62.6401   85.5917   12.5119 O.2     1  UNL1       -0.2463
     12 N          64.0395   87.3544   13.9540 N.ar    1  UNL1       -0.2784
     13 C          64.2578   88.8373   13.8956 C.ar    1  UNL1        0.0820
     14 C          65.0670   89.7671   14.7505 C.ar    1  UNL1        0.0484
     15 C          65.0951   91.2350   14.4432 C.ar    1  UNL1        0.1417
     16 F          65.9042   92.1648   15.2981 F       1  UNL1       -0.2041
     17 C          64.3140   91.7731   13.2812 C.ar    1  UNL1        0.0312
     18 C          63.5049   90.8433   12.4264 C.ar    1  UNL1        0.0211
     19 C          63.4768   89.3754   12.7336 C.ar    1  UNL1        0.0798
     20 C          64.6329   86.4149   14.9615 C.3     1  UNL1        0.1278
     21 C          63.7831   85.3455   15.5816 C.3     1  UNL1        0.0972
     22 N          63.5533   84.0541   14.8539 N.3     1  UNL1       -0.2668
     23 C          62.3117   83.2551   15.1181 C.3     1  UNL1        0.1047
     24 C          62.0820   81.9637   14.3904 C.3     1  UNL1        0.1595
     25 O          63.0939   81.4713   13.3987 O.3     1  UNL1       -0.3508
     26 C          64.3356   82.2703   13.1345 C.3     1  UNL1        0.1595
     27 C          64.5653   83.5617   13.8622 C.3     1  UNL1        0.1047
     28 N          59.5337   92.0660    4.4589 N.3     1  UNL1       -0.2689
     29 C          60.7527   91.2598    4.7971 C.3     1  UNL1        0.0729
     30 C          60.6437   90.0916    5.7316 C.3     1  UNL1        0.0264
     31 C          59.3158   89.7294    6.3278 C.3     1  UNL1        0.0795
     32 C          58.0968   90.5355    5.9896 C.3     1  UNL1        0.0264
     33 C          58.2058   91.7038    5.0552 C.3     1  UNL1        0.0729
     34 C          59.6426   93.2343    3.5244 C.3     1  UNL1        0.0993
     35 N          58.8087   92.2610   -1.5112 N.pl3   1  UNL1       -0.3426
     36 C          59.7542   92.5498   -0.3831 C.ar    1  UNL1        0.1251
     37 C          59.2257   92.7477    1.0067 C.ar    1  UNL1        0.0310
     38 C          60.1713   93.0364    2.1347 C.ar    1  UNL1       -0.0018
     39 C          61.6455   93.1273    1.8730 C.ar    1  UNL1        0.0179
     40 C          62.1740   92.9294    0.4832 C.ar    1  UNL1        0.1000
     41 N          61.2284   92.6406   -0.6448 N.ar    1  UNL1       -0.2296
     42 H          57.8411   92.2014   -1.3394 H       1  UNL1        0.1437
     43 H          59.1556   92.1311   -2.4233 H       1  UNL1        0.1437
@<TRIPOS>BOND
     1    35    36    1
     2    36    37   ar
     3    37    38   ar
     4    38    34    1
     5    34    28    1
     6    28    29    1
     7    29    30    1
     8    30    31    1
     9    31     1    1
    10     1     2    2
    11     1     3   am
    12     3     4    1
    13     4     5    1
    14     5     6    1
    15     6     9    1
    16     9    10   ar
    17    10    11    2
    18    10    12   ar
    19    12    20    1
    20    20    21    1
    21    21    22    1
    22    22    23    1
    23    23    24    1
    24    24    25    1
    25    25    26    1
    26    26    27    1
    27    12    13   ar
    28    13    14   ar
    29    14    15   ar
    30    15    16    1
    31    15    17   ar
    32    17    18   ar
    33    18    19   ar
    34     6     7    1
    35     7     8    1
    36    31    32    1
    37    32    33    1
    38    38    39   ar
    39    39    40   ar
    40    40    41   ar
    41    41    36   ar
    42    33    28    1
    43     8     3    1
    44    19     9   ar
    45    27    22    1
    46    19    13   ar
    47    35    42    1
    48    35    43    1
@<TRIPOS>MOLECULE
*****
 43 48 0 0 0
SMALL
GASTEIGER

@<TRIPOS>ATOM
      1 C          59.2148   88.5488    7.2368 C.2     1  UNL1        0.2252
      2 O          58.2356   87.4468    6.9593 O.2     1  UNL1       -0.2749
      3 N          60.0950   88.4821    8.4495 N.am    1  UNL1       -0.2794
      4 C          59.9961   87.3135    9.3847 C.3     1  UNL1        0.0953
      5 C          60.8764   87.2468   10.5974 C.3     1  UNL1        0.0442
      6 C          61.8556   88.3488   10.8749 C.3     1  UNL1        0.0933
      7 C          61.9545   89.5173    9.9397 C.3     1  UNL1        0.0442
      8 C          61.0742   89.5840    8.7270 C.3     1  UNL1        0.0953
      9 N          62.7359   88.2821   12.0877 N.ar    1  UNL1       -0.2817
     10 C          63.2984   89.4552   12.8344 C.ar    1  UNL1        0.3315
     11 O          63.0795   90.9008   12.4995 O.2     1  UNL1       -0.2463
     12 N          64.1184   88.9287   13.9747 N.ar    1  UNL1       -0.2784
     13 C          64.0626   87.4303   13.9329 C.ar    1  UNL1        0.0820
     14 C          64.6794   86.3781   14.8060 C.ar    1  UNL1        0.0484
     15 C          64.4418   84.9264   14.5129 C.ar    1  UNL1        0.1417
     16 F          65.0586   83.8742   15.3861 F       1  UNL1       -0.2041
     17 C          63.5873   84.5268   13.3466 C.ar    1  UNL1        0.0312
     18 C          62.9705   85.5790   12.4734 C.ar    1  UNL1        0.0211
     19 C          63.2081   87.0307   12.7666 C.ar    1  UNL1        0.0798
     20 C          64.8633   89.7554   14.9805 C.3     1  UNL1        0.1278
     21 C          65.0073   91.2346   14.7766 C.3     1  UNL1        0.0972
     22 N          66.3659   91.8689   14.8199 N.3     1  UNL1       -0.2668
     23 C          66.7538   92.7320   15.9837 C.3     1  UNL1        0.1047
     24 C          68.1124   93.3663   16.0271 C.3     1  UNL1        0.1595
     25 O          69.0830   93.1375   14.9066 O.3     1  UNL1       -0.3508
     26 C          68.6951   92.2744   13.7427 C.3     1  UNL1        0.1595
     27 C          67.3365   91.6401   13.6994 C.3     1  UNL1        0.1047
     28 N          59.5114   92.0545    4.4311 N.3     1  UNL1       -0.2689
     29 C          58.1869   91.6823    5.0289 C.3     1  UNL1        0.0729
     30 C          58.0880   90.5137    5.9641 C.3     1  UNL1        0.0264
     31 C          59.3137   89.7173    6.3015 C.3     1  UNL1        0.0795
     32 C          60.6381   90.0895    5.7038 C.3     1  UNL1        0.0264
     33 C          60.7370   91.2581    4.7686 C.3     1  UNL1        0.0729
     34 C          59.6103   93.2231    3.4959 C.3     1  UNL1        0.0993
     35 N          58.8507   92.3185   -1.5642 N.pl3   1  UNL1       -0.3426
     36 C          59.7804   92.5806   -0.4166 C.ar    1  UNL1        0.1251
     37 C          59.2305   92.7708    0.9659 C.ar    1  UNL1        0.0310
     38 C          60.1603   93.0329    2.1134 C.ar    1  UNL1       -0.0018
     39 C          61.6400   93.1048    1.8784 C.ar    1  UNL1        0.0179
     40 C          62.1900   92.9146    0.4959 C.ar    1  UNL1        0.1000
     41 N          61.2601   92.6525   -0.6516 N.ar    1  UNL1       -0.2296
     42 H          57.8795   92.2713   -1.4100 H       1  UNL1        0.1437
     43 H          59.2117   92.1937   -2.4716 H       1  UNL1        0.1437
@<TRIPOS>BOND
     1    35    36    1
     2    36    37   ar
     3    37    38   ar
     4    38    34    1
     5    34    28    1
     6    28    29    1
     7    29    30    1
     8    30    31    1
     9    31     1    1
    10     1     2    2
    11     1     3   am
    12     3     4    1
    13     4     5    1
    14     5     6    1
    15     6     9    1
    16     9    10   ar
    17    10    11    2
    18    10    12   ar
    19    12    20    1
    20    20    21    1
    21    21    22    1
    22    22    23    1
    23    23    24    1
    24    24    25    1
    25    25    26    1
    26    26    27    1
    27    12    13   ar
    28    13    14   ar
    29    14    15   ar
    30    15    16    1
    31    15    17   ar
    32    17    18   ar
    33    18    19   ar
    34     6     7    1
    35     7     8    1
    36    31    32    1
    37    32    33    1
    38    38    39   ar
    39    39    40   ar
    40    40    41   ar
    41    41    36   ar
    42    33    28    1
    43     8     3    1
    44    19     9   ar
    45    27    22    1
    46    19    13   ar
    47    35    42    1
    48    35    43    1
@<TRIPOS>MOLECULE
*****
 43 48 0 0 0
SMALL
GASTEIGER

@<TRIPOS>ATOM
      1 C          59.1294   88.6204    7.2563 C.2     1  UNL1        0.2252
      2 O          58.0926   87.5617    7.0237 O.2     1  UNL1       -0.2749
      3 N          60.0222   88.5444    8.4593 N.am    1  UNL1       -0.2794
      4 C          59.8780   87.4097    9.4297 C.3     1  UNL1        0.0953
      5 C          60.7707   87.3336   10.6327 C.3     1  UNL1        0.0442
      6 C          61.8076   88.3923   10.8654 C.3     1  UNL1        0.0933
      7 C          61.9517   89.5270    9.8950 C.3     1  UNL1        0.0442
      8 C          61.0590   89.6030    8.6920 C.3     1  UNL1        0.0953
      9 N          62.7003   88.3163   12.0684 N.ar    1  UNL1       -0.2817
     10 C          63.2747   89.4834   12.8153 C.ar    1  UNL1        0.3315
     11 O          63.0572   90.9316   12.4904 O.2     1  UNL1       -0.2463
     12 N          64.1047   88.9482   13.9443 N.ar    1  UNL1       -0.2784
     13 C          64.0434   87.4502   13.8951 C.ar    1  UNL1        0.0820
     14 C          64.6657   86.3914   14.7562 C.ar    1  UNL1        0.0484
     15 C          64.4201   84.9421   14.4580 C.ar    1  UNL1        0.1417
     16 F          65.0424   83.8831   15.3191 F       1  UNL1       -0.2041
     17 C          63.5521   84.5515   13.2986 C.ar    1  UNL1        0.0312
     18 C          62.9298   85.6103   12.4375 C.ar    1  UNL1        0.0211
     19 C          63.1754   87.0597   12.7357 C.ar    1  UNL1        0.0798
     20 C          64.8630   89.7671   14.9465 C.3     1  UNL1        0.1278
     21 C          65.0130   91.2462   14.7470 C.3     1  UNL1        0.0972
     22 N          66.3733   91.8762   14.8006 N.3     1  UNL1       -0.2668
     23 C          67.3570   91.6315   13.6950 C.3     1  UNL1        0.1047
     24 C          68.7173   92.2615   13.7486 C.3     1  UNL1        0.1595
     25 O          69.0937   93.1360   14.9077 O.3     1  UNL1       -0.3508
     26 C          68.1100   93.3806   16.0132 C.3     1  UNL1        0.1595
     27 C          66.7497   92.7507   15.9597 C.3     1  UNL1        0.1047
     28 N          59.5619   92.0246    4.3452 N.3     1  UNL1       -0.2689
     29 C          58.2148   91.6914    4.9149 C.3     1  UNL1        0.0729
     30 C          58.0706   90.5567    5.8852 C.3     1  UNL1        0.0264
     31 C          59.2736   89.7551    6.2859 C.3     1  UNL1        0.0795
     32 C          60.6206   90.0883    5.7162 C.3     1  UNL1        0.0264
     33 C          60.7648   91.2230    4.7459 C.3     1  UNL1        0.0729
     34 C          59.7060   93.1593    3.3748 C.3     1  UNL1        0.0993
     35 N          64.5714   92.9622    1.5612 N.pl3   1  UNL1       -0.3426
     36 C          63.0917   92.9455    1.3155 C.ar    1  UNL1        0.1251
     37 C          62.1387   93.0607    2.4680 C.ar    1  UNL1        0.0310
     38 C          60.6590   93.0441    2.2222 C.ar    1  UNL1       -0.0018
     39 C          60.1325   92.9122    0.8239 C.ar    1  UNL1        0.0179
     40 C          61.0856   92.7970   -0.3286 C.ar    1  UNL1        0.1000
     41 N          62.5652   92.8137   -0.0828 N.ar    1  UNL1       -0.2296
     42 H          64.9171   93.0487    2.4790 H       1  UNL1        0.1437
     43 H          65.1969   92.8866    0.8047 H       1  UNL1        0.1437
@<TRIPOS>BOND
     1    35    36    1
     2    36    37   ar
     3    37    38   ar
     4    38    34    1
     5    34    28    1
     6    28    29    1
     7    29    30    1
     8    30    31    1
     9    31     1    1
    10     1     2    2
    11     1     3   am
    12     3     4    1
    13     4     5    1
    14     5     6    1
    15     6     9    1
    16     9    10   ar
    17    10    11    2
    18    10    12   ar
    19    12    20    1
    20    20    21    1
    21    21    22    1
    22    22    23    1
    23    23    24    1
    24    24    25    1
    25    25    26    1
    26    26    27    1
    27    12    13   ar
    28    13    14   ar
    29    14    15   ar
    30    15    16    1
    31    15    17   ar
    32    17    18   ar
    33    18    19   ar
    34     6     7    1
    35     7     8    1
    36    31    32    1
    37    32    33    1
    38    38    39   ar
    39    39    40   ar
    40    40    41   ar
    41    41    36   ar
    42    33    28    1
    43     8     3    1
    44    19     9   ar
    45    27    22    1
    46    19    13   ar
    47    35    42    1
    48    35    43    1
@<TRIPOS>MOLECULE
*****
 43 48 0 0 0
SMALL
GASTEIGER

@<TRIPOS>ATOM
      1 C          62.6989   86.3508   16.8602 C.2     1  UNL1        0.2252
      2 O          61.9409   86.4348   18.1518 O.2     1  UNL1       -0.2749
      3 N          63.3001   87.5879   16.2616 N.am    1  UNL1       -0.2794
      4 C          63.1433   88.9088   16.9547 C.3     1  UNL1        0.0953
      5 C          63.7445   90.1459   16.3562 C.3     1  UNL1        0.0442
      6 C          64.5026   90.0619   15.0645 C.3     1  UNL1        0.0933
      7 C          64.6594   88.7410   14.3715 C.3     1  UNL1        0.0442
      8 C          64.0582   87.5039   14.9700 C.3     1  UNL1        0.0953
      9 N          65.1038   91.2990   14.4659 N.ar    1  UNL1       -0.2817
     10 C          64.6483   91.9821   13.2106 C.ar    1  UNL1        0.3315
     11 O          63.5116   91.5481   12.3334 O.2     1  UNL1       -0.2463
     12 N          65.5291   93.1754   12.9865 N.ar    1  UNL1       -0.2784
     13 C          66.5290   93.2298   14.1033 C.ar    1  UNL1        0.0820
     14 C          67.6448   94.1855   14.4058 C.ar    1  UNL1        0.0484
     15 C          68.4978   93.9815   15.6226 C.ar    1  UNL1        0.1417
     16 F          69.6137   94.9372   15.9252 F       1  UNL1       -0.2041
     17 C          68.2350   92.8218   16.5370 C.ar    1  UNL1        0.0312
     18 C          67.1192   91.8661   16.2345 C.ar    1  UNL1        0.0211
     19 C          66.2662   92.0701   15.0177 C.ar    1  UNL1        0.0798
     20 C          65.4278   94.1442   11.8459 C.3     1  UNL1        0.1278
     21 C          66.6733   94.6793   11.2034 C.3     1  UNL1        0.0972
     22 N          67.3740   93.8800   10.1450 N.3     1  UNL1       -0.2668
     23 C          67.7039   92.4374   10.3901 C.3     1  UNL1        0.1047
     24 C          68.4047   91.6382    9.3317 C.3     1  UNL1        0.1595
     25 O          68.7755   92.2815    8.0284 O.3     1  UNL1       -0.3508
     26 C          68.4456   93.7241    7.7834 C.3     1  UNL1        0.1595
     27 C          67.7448   94.5233    8.8417 C.3     1  UNL1        0.1047
     28 N          63.1694   82.3878   14.7810 N.3     1  UNL1       -0.2689
     29 C          61.8101   83.0081   14.9143 C.3     1  UNL1        0.0729
     30 C          61.6533   84.3291   15.6074 C.3     1  UNL1        0.0264
     31 C          62.8557   85.0298   16.1671 C.3     1  UNL1        0.0795
     32 C          64.2150   84.4095   16.0338 C.3     1  UNL1        0.0264
     33 C          64.3718   83.0885   15.3407 C.3     1  UNL1        0.0729
     34 C          63.3263   81.0668   14.0879 C.3     1  UNL1        0.0993
     35 N          62.4783   78.4494    9.6800 N.pl3   1  UNL1       -0.3426
     36 C          62.9255   79.6953   10.3855 C.ar    1  UNL1        0.1251
     37 C          62.9023   79.7581   11.8840 C.ar    1  UNL1        0.0310
     38 C          63.3495   81.0041   12.5894 C.ar    1  UNL1       -0.0018
     39 C          63.8199   82.1872   11.7964 C.ar    1  UNL1        0.0179
     40 C          63.8431   82.1243   10.2979 C.ar    1  UNL1        0.1000
     41 N          63.3959   80.8784    9.5925 N.ar    1  UNL1       -0.2296
     42 H          62.1695   77.6728   10.2005 H       1  UNL1        0.1437
     43 H          62.4935   78.4082    8.6965 H       1  UNL1        0.1437
@<TRIPOS>BOND
     1    35    36    1
     2    36    37   ar
     3    37    38   ar
     4    38    34    1
     5    34    28    1
     6    28    29    1
     7    29    30    1
     8    30    31    1
     9    31     1    1
    10     1     2    2
    11     1     3   am
    12     3     4    1
    13     4     5    1
    14     5     6    1
    15     6     9    1
    16     9    10   ar
    17    10    11    2
    18    10    12   ar
    19    12    20    1
    20    20    21    1
    21    21    22    1
    22    22    23    1
    23    23    24    1
    24    24    25    1
    25    25    26    1
    26    26    27    1
    27    12    13   ar
    28    13    14   ar
    29    14    15   ar
    30    15    16    1
    31    15    17   ar
    32    17    18   ar
    33    18    19   ar
    34     6     7    1
    35     7     8    1
    36    31    32    1
    37    32    33    1
    38    38    39   ar
    39    39    40   ar
    40    40    41   ar
    41    41    36   ar
    42    33    28    1
    43     8     3    1
    44    19     9   ar
    45    27    22    1
    46    19    13   ar
    47    35    42    1
    48    35    43    1
