@<TRIPOS>MOLECULE
*****
 39 43 0 0 0
SMALL
GASTEIGER

@<TRIPOS>ATOM
      1 C          62.9302   90.2085   12.4846 C.3     1  UNL1        0.1408
      2 C          63.4181   91.3795   11.6843 C.3     1  UNL1        0.1231
      3 N          64.6125   91.9550   12.3859 N.am    1  UNL1       -0.2783
      4 C          65.6523   93.0345   12.3249 C.2     1  UNL1        0.2253
      5 O          65.7772   94.0789   11.2555 O.2     1  UNL1       -0.2749
      6 C          66.5451   92.8862   13.5211 C.3     1  UNL1        0.0807
      7 C          67.7396   93.4617   14.2226 C.3     1  UNL1        0.0360
      8 C          67.9898   92.6462   15.4564 C.3     1  UNL1        0.0889
      9 C          69.1318   93.5967   15.6624 C.3     1  UNL1        0.0293
     10 O          68.4788   92.0295   16.7333 O.3     1  UNL1       -0.3867
     11 C          66.9501   91.5668   15.5175 C.3     1  UNL1        0.0291
     12 C          66.0572   91.7151   14.3213 C.3     1  UNL1        0.0296
     13 C          64.8628   91.1395   13.6198 C.3     1  UNL1        0.0823
     14 C          63.8231   90.0602   13.6807 C.3     1  UNL1        0.0694
     15 H          69.2530   92.5188   17.0530 H       1  UNL1        0.2102
     16 C          63.6981   89.0157   14.7502 C.ar    1  UNL1       -0.0183
     17 C          64.1705   87.6159   14.4903 C.ar    1  UNL1       -0.0018
     18 C          64.0455   86.5716   15.5598 C.ar    1  UNL1        0.0293
     19 C          63.4482   86.9270   16.8890 C.ar    1  UNL1        0.1401
     20 F          63.3232   85.8825   17.9585 F       1  UNL1       -0.2042
     21 C          62.9758   88.3267   17.1489 C.ar    1  UNL1        0.0293
     22 C          63.1008   89.3711   16.0794 C.ar    1  UNL1       -0.0018
     23 O          61.7556   89.3383   12.1479 O.3     1  UNL1       -0.3522
     24 C          61.0060   89.7644    9.6971 C.3     1  UNL1        0.0370
     25 C          61.5647   88.8466   10.7437 C.3     1  UNL1        0.1375
     26 C          61.9325   87.4371   10.3861 C.ar    1  UNL1        0.0044
     27 C          62.4796   86.5154   11.4356 C.ar    1  UNL1        0.0019
     28 C          62.8474   85.1059   11.0780 C.ar    1  UNL1        0.0711
     29 C          62.6681   84.6179    9.6709 C.ar    1  UNL1        0.0077
     30 C          62.1210   85.5396    8.6215 C.ar    1  UNL1        0.0711
     31 C          61.7532   86.9491    8.9791 C.ar    1  UNL1        0.0019
     32 C          63.3945   84.1843   12.1273 C.3     1  UNL1        0.4186
     33 F          63.9416   83.2627   13.1768 F       1  UNL1       -0.1659
     34 F          64.2896   83.5504   11.1041 F       1  UNL1       -0.1659
     35 F          62.4994   84.8181   13.1507 F       1  UNL1       -0.1659
     36 C          61.9416   85.0516    7.2144 C.3     1  UNL1        0.4186
     37 F          61.7623   84.5636    5.8074 F       1  UNL1       -0.1659
     38 F          60.5188   85.5263    7.2311 F       1  UNL1       -0.1659
     39 F          63.3644   84.5769    7.1977 F       1  UNL1       -0.1659
@<TRIPOS>BOND
     1    25    24    1
     2    25    23    1
     3     1    23    1
     4     1     2    1
     5     2     3    1
     6     3     4   am
     7     4     5    2
     8     4     6    1
     9     6     7    1
    10     7     8    1
    11     8     9    1
    12     8    10    1
    13     8    11    1
    14    12    11    1
    15    12    13    1
    16    13    14    1
    17    14    16    1
    18    16    17   ar
    19    17    18   ar
    20    18    19   ar
    21    19    20    1
    22    19    21   ar
    23    21    22   ar
    24    25    26    1
    25    26    27   ar
    26    27    28   ar
    27    28    32    1
    28    32    33    1
    29    32    34    1
    30    32    35    1
    31    28    29   ar
    32    29    30   ar
    33    30    36    1
    34    36    37    1
    35    36    38    1
    36    36    39    1
    37    30    31   ar
    38    14     1    1
    39    22    16   ar
    40    31    26   ar
    41    13     3    1
    42    12     6    1
    43    10    15    1
@<TRIPOS>MOLECULE
*****
 39 43 0 0 0
SMALL
GASTEIGER

@<TRIPOS>ATOM
      1 C          62.9236   90.2051   12.4793 C.3     1  UNL1        0.1408
      2 C          63.4119   91.3764   11.6797 C.3     1  UNL1        0.1231
      3 N          64.6017   91.9559   12.3857 N.am    1  UNL1       -0.2783
      4 C          65.6389   93.0381   12.3279 C.2     1  UNL1        0.2253
      5 O          65.7657   94.0814   11.2577 O.2     1  UNL1       -0.2749
      6 C          66.5270   92.8936   13.5281 C.3     1  UNL1        0.0807
      7 C          67.7169   93.4731   14.2340 C.3     1  UNL1        0.0360
      8 C          67.9639   92.6599   15.4700 C.3     1  UNL1        0.0889
      9 C          69.1025   93.6137   15.6796 C.3     1  UNL1        0.0293
     10 O          68.4490   92.0460   16.7497 O.3     1  UNL1       -0.3867
     11 C          66.9268   91.5777   15.5279 C.3     1  UNL1        0.0291
     12 C          66.0387   91.7222   14.3277 C.3     1  UNL1        0.0296
     13 C          64.8489   91.1427   13.6217 C.3     1  UNL1        0.0823
     14 C          63.8117   90.0606   13.6795 C.3     1  UNL1        0.0694
     15 H          69.2205   92.5378   17.0721 H       1  UNL1        0.2102
     16 C          63.6849   89.0172   14.7497 C.ar    1  UNL1       -0.0183
     17 C          64.1530   87.6159   14.4902 C.ar    1  UNL1       -0.0018
     18 C          64.0261   86.5725   15.5604 C.ar    1  UNL1        0.0293
     19 C          63.4312   86.9305   16.8901 C.ar    1  UNL1        0.1401
     20 F          63.3044   85.8870   17.9603 F       1  UNL1       -0.2042
     21 C          62.9632   88.3317   17.1496 C.ar    1  UNL1        0.0293
     22 C          63.0900   89.3751   16.0794 C.ar    1  UNL1       -0.0018
     23 O          61.7529   89.3314   12.1387 O.3     1  UNL1       -0.3522
     24 C          61.0172   89.7554    9.6832 C.3     1  UNL1        0.0370
     25 C          61.5688   88.8381   10.7341 C.3     1  UNL1        0.1375
     26 C          61.9365   87.4276   10.3804 C.ar    1  UNL1        0.0044
     27 C          61.7581   86.9360    8.9744 C.ar    1  UNL1        0.0019
     28 C          62.1258   85.5255    8.6206 C.ar    1  UNL1        0.0711
     29 C          62.6718   84.6064    9.6729 C.ar    1  UNL1        0.0077
     30 C          62.8502   85.0979   11.0788 C.ar    1  UNL1        0.0711
     31 C          62.4825   86.5085   11.4326 C.ar    1  UNL1        0.0019
     32 C          61.9474   85.0340    7.2148 C.3     1  UNL1        0.4186
     33 F          61.7690   84.5425    5.8089 F       1  UNL1       -0.1659
     34 F          63.3709   84.5612    7.1994 F       1  UNL1       -0.1659
     35 F          60.5239   85.5069    7.2301 F       1  UNL1       -0.1659
     36 C          63.3962   84.1788   12.1310 C.3     1  UNL1        0.4186
     37 F          63.9423   83.2597   13.1833 F       1  UNL1       -0.1659
     38 F          62.4830   84.7989   13.1467 F       1  UNL1       -0.1659
     39 F          64.3094   83.5587   11.1155 F       1  UNL1       -0.1659
@<TRIPOS>BOND
     1    25    24    1
     2    25    23    1
     3     1    23    1
     4     1     2    1
     5     2     3    1
     6     3     4   am
     7     4     5    2
     8     4     6    1
     9     6     7    1
    10     7     8    1
    11     8     9    1
    12     8    10    1
    13     8    11    1
    14    12    11    1
    15    12    13    1
    16    13    14    1
    17    14    16    1
    18    16    17   ar
    19    17    18   ar
    20    18    19   ar
    21    19    20    1
    22    19    21   ar
    23    21    22   ar
    24    25    26    1
    25    26    27   ar
    26    27    28   ar
    27    28    32    1
    28    32    33    1
    29    32    34    1
    30    32    35    1
    31    28    29   ar
    32    29    30   ar
    33    30    36    1
    34    36    37    1
    35    36    38    1
    36    36    39    1
    37    30    31   ar
    38    14     1    1
    39    22    16   ar
    40    31    26   ar
    41    13     3    1
    42    12     6    1
    43    10    15    1
@<TRIPOS>MOLECULE
*****
 39 43 0 0 0
SMALL
GASTEIGER

@<TRIPOS>ATOM
      1 C          62.7710   87.6045   11.2577 C.3     1  UNL1        0.1408
      2 C          63.1672   87.5509   12.7033 C.3     1  UNL1        0.1231
      3 N          63.2189   86.1099   13.1166 N.am    1  UNL1       -0.2783
      4 C          63.4957   85.1861   14.2656 C.2     1  UNL1        0.2253
      5 O          63.8955   85.5979   15.6514 O.2     1  UNL1       -0.2749
      6 C          63.3024   83.7782   13.7854 C.3     1  UNL1        0.0807
      7 C          63.3540   82.3372   14.1987 C.3     1  UNL1        0.0360
      8 C          62.9897   81.5003   13.0084 C.3     1  UNL1        0.0889
      9 C          63.1995   80.3514   13.9497 C.3     1  UNL1        0.0293
     10 O          62.6692   80.4232   12.0150 O.3     1  UNL1       -0.3867
     11 C          62.7129   82.4240   11.8595 C.3     1  UNL1        0.0291
     12 C          62.9062   83.8319   12.3397 C.3     1  UNL1        0.0296
     13 C          62.8545   85.2729   11.9263 C.3     1  UNL1        0.0823
     14 C          62.5777   86.1967   10.7775 C.3     1  UNL1        0.0694
     15 H          62.7493   79.5557   12.4415 H       1  UNL1        0.2102
     16 C          62.1778   85.7849    9.3916 C.ar    1  UNL1       -0.0183
     17 C          60.8017   86.0984    8.8837 C.ar    1  UNL1       -0.0018
     18 C          60.4019   85.6866    7.4978 C.ar    1  UNL1        0.0293
     19 C          61.3782   84.9612    6.6199 C.ar    1  UNL1        0.1401
     20 F          60.9783   84.5494    5.2340 F       1  UNL1       -0.2042
     21 C          62.7543   84.6477    7.1278 C.ar    1  UNL1        0.0293
     22 C          63.1541   85.0595    8.5136 C.ar    1  UNL1       -0.0018
     23 O          62.5983   88.8477   10.4362 O.3     1  UNL1       -0.3522
     24 C          60.9400   90.6411   11.3216 C.3     1  UNL1        0.0370
     25 C          62.3462   90.1634   11.1111 C.3     1  UNL1        0.1375
     26 C          63.5004   91.0015   11.5754 C.ar    1  UNL1        0.0044
     27 C          63.8678   91.0324   13.0294 C.ar    1  UNL1        0.0019
     28 C          65.0219   91.8705   13.4937 C.ar    1  UNL1        0.0711
     29 C          65.8087   92.6776   12.5040 C.ar    1  UNL1        0.0077
     30 C          65.4413   92.6467   11.0499 C.ar    1  UNL1        0.0711
     31 C          64.2871   91.8087   10.5857 C.ar    1  UNL1        0.0019
     32 C          65.3893   91.9014   14.9476 C.3     1  UNL1        0.4186
     33 F          65.7567   91.9323   16.4016 F       1  UNL1       -0.1659
     34 F          66.0502   93.2337   14.7523 F       1  UNL1       -0.1659
     35 F          64.7285   90.5690   15.1429 F       1  UNL1       -0.1659
     36 C          66.2281   93.4539   10.0602 C.3     1  UNL1        0.4186
     37 F          67.0149   94.2610    9.0705 F       1  UNL1       -0.1659
     38 F          65.3129   94.6210   10.2845 F       1  UNL1       -0.1659
     39 F          67.1432   92.2868    9.8359 F       1  UNL1       -0.1659
@<TRIPOS>BOND
     1    25    24    1
     2    25    23    1
     3     1    23    1
     4     1     2    1
     5     2     3    1
     6     3     4   am
     7     4     5    2
     8     4     6    1
     9     6     7    1
    10     7     8    1
    11     8     9    1
    12     8    10    1
    13     8    11    1
    14    12    11    1
    15    12    13    1
    16    13    14    1
    17    14    16    1
    18    16    17   ar
    19    17    18   ar
    20    18    19   ar
    21    19    20    1
    22    19    21   ar
    23    21    22   ar
    24    25    26    1
    25    26    27   ar
    26    27    28   ar
    27    28    32    1
    28    32    33    1
    29    32    34    1
    30    32    35    1
    31    28    29   ar
    32    29    30   ar
    33    30    36    1
    34    36    37    1
    35    36    38    1
    36    36    39    1
    37    30    31   ar
    38    14     1    1
    39    22    16   ar
    40    31    26   ar
    41    13     3    1
    42    12     6    1
    43    10    15    1
@<TRIPOS>MOLECULE
*****
 39 43 0 0 0
SMALL
GASTEIGER

@<TRIPOS>ATOM
      1 C          62.7692   87.5556   11.2947 C.3     1  UNL1        0.1408
      2 C          63.1509   87.4914   12.7438 C.3     1  UNL1        0.1231
      3 N          63.1952   86.0475   13.1480 N.am    1  UNL1       -0.2783
      4 C          63.4584   85.1154   14.2934 C.2     1  UNL1        0.2253
      5 O          63.8454   85.5171   15.6859 O.2     1  UNL1       -0.2749
      6 C          63.2668   83.7113   13.8019 C.3     1  UNL1        0.0807
      7 C          63.3110   82.2674   14.2061 C.3     1  UNL1        0.0360
      8 C          62.9567   81.4393   13.0067 C.3     1  UNL1        0.0889
      9 C          63.1545   80.2837   13.9422 C.3     1  UNL1        0.0293
     10 O          62.6437   80.3696   12.0028 O.3     1  UNL1       -0.3867
     11 C          62.6934   82.3713   11.8612 C.3     1  UNL1        0.0291
     12 C          62.8851   83.7755   12.3527 C.3     1  UNL1        0.0296
     13 C          62.8408   85.2193   11.9485 C.3     1  UNL1        0.0823
     14 C          62.5776   86.1514   10.8032 C.3     1  UNL1        0.0694
     15 H          62.7176   79.4991   12.4243 H       1  UNL1        0.2102
     16 C          62.1906   85.7498    9.4107 C.ar    1  UNL1       -0.0183
     17 C          60.8190   86.0666    8.8926 C.ar    1  UNL1       -0.0018
     18 C          60.4321   85.6649    7.5001 C.ar    1  UNL1        0.0293
     19 C          61.4168   84.9466    6.6257 C.ar    1  UNL1        0.1401
     20 F          61.0298   84.5450    5.2332 F       1  UNL1       -0.2042
     21 C          62.7883   84.6298    7.1439 C.ar    1  UNL1        0.0293
     22 C          63.1752   85.0314    8.5363 C.ar    1  UNL1       -0.0018
     23 O          62.6075   88.8046   10.4800 O.3     1  UNL1       -0.3522
     24 C          60.9343   90.5759   11.3816 C.3     1  UNL1        0.0370
     25 C          62.3446   90.1152   11.1607 C.3     1  UNL1        0.1375
     26 C          63.4920   90.9650   11.6204 C.ar    1  UNL1        0.0044
     27 C          64.2740   91.7711   10.6259 C.ar    1  UNL1        0.0019
     28 C          65.4213   92.6209   11.0856 C.ar    1  UNL1        0.0711
     29 C          65.7867   92.6647   12.5398 C.ar    1  UNL1        0.0077
     30 C          65.0047   91.8587   13.5343 C.ar    1  UNL1        0.0711
     31 C          63.8574   91.0088   13.0745 C.ar    1  UNL1        0.0019
     32 C          66.2032   93.4269   10.0913 C.3     1  UNL1        0.4186
     33 F          66.9851   94.2330    9.0969 F       1  UNL1       -0.1659
     34 F          67.0996   92.2503    9.8423 F       1  UNL1       -0.1659
     35 F          65.3068   94.6036   10.3402 F       1  UNL1       -0.1659
     36 C          65.3702   91.9025   14.9884 C.3     1  UNL1        0.4186
     37 F          65.7356   91.9463   16.4426 F       1  UNL1       -0.1659
     38 F          64.5321   90.6832   15.2358 F       1  UNL1       -0.1659
     39 F          66.2081   93.1216   14.7411 F       1  UNL1       -0.1659
@<TRIPOS>BOND
     1    25    24    1
     2    25    23    1
     3     1    23    1
     4     1     2    1
     5     2     3    1
     6     3     4   am
     7     4     5    2
     8     4     6    1
     9     6     7    1
    10     7     8    1
    11     8     9    1
    12     8    10    1
    13     8    11    1
    14    12    11    1
    15    12    13    1
    16    13    14    1
    17    14    16    1
    18    16    17   ar
    19    17    18   ar
    20    18    19   ar
    21    19    20    1
    22    19    21   ar
    23    21    22   ar
    24    25    26    1
    25    26    27   ar
    26    27    28   ar
    27    28    32    1
    28    32    33    1
    29    32    34    1
    30    32    35    1
    31    28    29   ar
    32    29    30   ar
    33    30    36    1
    34    36    37    1
    35    36    38    1
    36    36    39    1
    37    30    31   ar
    38    14     1    1
    39    22    16   ar
    40    31    26   ar
    41    13     3    1
    42    12     6    1
    43    10    15    1
@<TRIPOS>MOLECULE
*****
 39 43 0 0 0
SMALL
GASTEIGER

@<TRIPOS>ATOM
      1 C          64.0661   89.3103   14.0928 C.3     1  UNL1        0.1408
      2 C          65.2125   89.9199   14.8439 C.3     1  UNL1        0.1231
      3 N          65.6379   91.1595   14.1143 N.am    1  UNL1       -0.2783
      4 C          66.6093   92.3024   14.1275 C.2     1  UNL1        0.2253
      5 O          67.6765   92.5406   15.1543 O.2     1  UNL1       -0.2749
      6 C          66.3262   93.1653   12.9337 C.3     1  UNL1        0.0807
      7 C          66.7516   94.4049   12.2041 C.3     1  UNL1        0.0360
      8 C          65.8681   94.5615   11.0020 C.3     1  UNL1        0.0889
      9 C          66.6908   95.7908   10.7531 C.3     1  UNL1        0.0293
     10 O          65.1566   94.9750    9.7480 O.3     1  UNL1       -0.3867
     11 C          64.8967   93.4186   10.9887 C.3     1  UNL1        0.0291
     12 C          65.1798   92.5557   12.1826 C.3     1  UNL1        0.0296
     13 C          64.7544   91.3161   12.9122 C.3     1  UNL1        0.0823
     14 C          63.7830   90.1732   12.8990 C.3     1  UNL1        0.0694
     15 H          65.5532   95.7913    9.4054 H       1  UNL1        0.2102
     16 C          62.7158   89.9350   11.8721 C.ar    1  UNL1       -0.0183
     17 C          61.2944   89.7246   12.3026 C.ar    1  UNL1       -0.0018
     18 C          60.2272   89.4864   11.2757 C.ar    1  UNL1        0.0293
     19 C          60.5815   89.4587    9.8184 C.ar    1  UNL1        0.1401
     20 F          59.5142   89.2205    8.7915 F       1  UNL1       -0.2042
     21 C          62.0029   89.6691    9.3879 C.ar    1  UNL1        0.0293
     22 C          63.0700   89.9073   10.4148 C.ar    1  UNL1       -0.0018
     23 O          63.3317   88.0578   14.4693 O.3     1  UNL1       -0.3522
     24 C          65.1211   86.3129   15.1790 C.3     1  UNL1        0.0370
     25 C          63.9866   86.7207   14.2864 C.3     1  UNL1        0.1375
     26 C          63.5071   85.7915   13.2110 C.ar    1  UNL1        0.0044
     27 C          62.9235   86.3466   11.9455 C.ar    1  UNL1        0.0019
     28 C          62.4440   85.4173   10.8701 C.ar    1  UNL1        0.0711
     29 C          62.5479   83.9330   11.0601 C.ar    1  UNL1        0.0077
     30 C          63.1314   83.3780   12.3257 C.ar    1  UNL1        0.0711
     31 C          63.6110   84.3072   13.4011 C.ar    1  UNL1        0.0019
     32 C          61.8605   85.9723    9.6046 C.3     1  UNL1        0.4186
     33 F          61.2770   86.5273    8.3391 F       1  UNL1       -0.1659
     34 F          60.5898   86.2967   10.3327 F       1  UNL1       -0.1659
     35 F          63.1312   85.6479    8.8765 F       1  UNL1       -0.1659
     36 C          63.2353   81.8937   12.5157 C.3     1  UNL1        0.4186
     37 F          63.3393   80.4094   12.7058 F       1  UNL1       -0.1659
     38 F          64.7205   81.9727   12.3203 F       1  UNL1       -0.1659
     39 F          61.7503   81.8147   12.7111 F       1  UNL1       -0.1659
@<TRIPOS>BOND
     1    25    24    1
     2    25    23    1
     3     1    23    1
     4     1     2    1
     5     2     3    1
     6     3     4   am
     7     4     5    2
     8     4     6    1
     9     6     7    1
    10     7     8    1
    11     8     9    1
    12     8    10    1
    13     8    11    1
    14    12    11    1
    15    12    13    1
    16    13    14    1
    17    14    16    1
    18    16    17   ar
    19    17    18   ar
    20    18    19   ar
    21    19    20    1
    22    19    21   ar
    23    21    22   ar
    24    25    26    1
    25    26    27   ar
    26    27    28   ar
    27    28    32    1
    28    32    33    1
    29    32    34    1
    30    32    35    1
    31    28    29   ar
    32    29    30   ar
    33    30    36    1
    34    36    37    1
    35    36    38    1
    36    36    39    1
    37    30    31   ar
    38    14     1    1
    39    22    16   ar
    40    31    26   ar
    41    13     3    1
    42    12     6    1
    43    10    15    1
@<TRIPOS>MOLECULE
*****
 39 43 0 0 0
SMALL
GASTEIGER

@<TRIPOS>ATOM
      1 C          64.0583   89.2920   14.0935 C.3     1  UNL1        0.1408
      2 C          65.2036   89.9005   14.8470 C.3     1  UNL1        0.1231
      3 N          65.6312   91.1401   14.1186 N.am    1  UNL1       -0.2783
      4 C          66.6033   92.2824   14.1341 C.2     1  UNL1        0.2253
      5 O          67.6687   92.5195   15.1631 O.2     1  UNL1       -0.2749
      6 C          66.3230   93.1459   12.9401 C.3     1  UNL1        0.0807
      7 C          66.7506   94.3856   12.2118 C.3     1  UNL1        0.0360
      8 C          65.8694   94.5431   11.0081 C.3     1  UNL1        0.0889
      9 C          66.6933   95.7720   10.7613 C.3     1  UNL1        0.0293
     10 O          65.1606   94.9576    9.7529 O.3     1  UNL1       -0.3867
     11 C          64.8973   93.4009   10.9926 C.3     1  UNL1        0.0291
     12 C          65.1776   92.5374   12.1866 C.3     1  UNL1        0.0296
     13 C          64.7500   91.2977   12.9149 C.3     1  UNL1        0.0823
     14 C          63.7780   90.1555   12.8995 C.3     1  UNL1        0.0694
     15 H          65.5583   95.7738    9.4114 H       1  UNL1        0.2102
     16 C          62.7125   89.9184   11.8705 C.ar    1  UNL1       -0.0183
     17 C          63.0694   89.8910   10.4138 C.ar    1  UNL1       -0.0018
     18 C          62.0040   89.6539    9.3850 C.ar    1  UNL1        0.0293
     19 C          60.5816   89.4442    9.8128 C.ar    1  UNL1        0.1401
     20 F          59.5162   89.2071    8.7838 F       1  UNL1       -0.2042
     21 C          60.2247   89.4716   11.2694 C.ar    1  UNL1        0.0293
     22 C          61.2902   89.7087   12.2983 C.ar    1  UNL1       -0.0018
     23 O          63.3224   88.0397   14.4682 O.3     1  UNL1       -0.3522
     24 C          65.1117   86.2948   15.1777 C.3     1  UNL1        0.0370
     25 C          63.9767   86.7023   14.2858 C.3     1  UNL1        0.1375
     26 C          63.4960   85.7725   13.2114 C.ar    1  UNL1        0.0044
     27 C          63.5936   84.2882   13.4052 C.ar    1  UNL1        0.0019
     28 C          63.1129   83.3583   12.3308 C.ar    1  UNL1        0.0711
     29 C          62.5346   83.9127   11.0626 C.ar    1  UNL1        0.0077
     30 C          62.4369   85.3970   10.8689 C.ar    1  UNL1        0.0711
     31 C          62.9176   86.3268   11.9432 C.ar    1  UNL1        0.0019
     32 C          63.2105   81.8742   12.5245 C.3     1  UNL1        0.4186
     33 F          63.3081   80.3899   12.7183 F       1  UNL1       -0.1659
     34 F          64.6842   81.9354   12.2514 F       1  UNL1       -0.1659
     35 F          61.7368   81.8129   12.7977 F       1  UNL1       -0.1659
     36 C          61.8586   85.9514    9.6007 C.3     1  UNL1        0.4186
     37 F          61.2802   86.5057    8.3326 F       1  UNL1       -0.1659
     38 F          63.1280   85.6163    8.8753 F       1  UNL1       -0.1659
     39 F          60.5892   86.2864   10.3261 F       1  UNL1       -0.1659
@<TRIPOS>BOND
     1    25    24    1
     2    25    23    1
     3     1    23    1
     4     1     2    1
     5     2     3    1
     6     3     4   am
     7     4     5    2
     8     4     6    1
     9     6     7    1
    10     7     8    1
    11     8     9    1
    12     8    10    1
    13     8    11    1
    14    12    11    1
    15    12    13    1
    16    13    14    1
    17    14    16    1
    18    16    17   ar
    19    17    18   ar
    20    18    19   ar
    21    19    20    1
    22    19    21   ar
    23    21    22   ar
    24    25    26    1
    25    26    27   ar
    26    27    28   ar
    27    28    32    1
    28    32    33    1
    29    32    34    1
    30    32    35    1
    31    28    29   ar
    32    29    30   ar
    33    30    36    1
    34    36    37    1
    35    36    38    1
    36    36    39    1
    37    30    31   ar
    38    14     1    1
    39    22    16   ar
    40    31    26   ar
    41    13     3    1
    42    12     6    1
    43    10    15    1
@<TRIPOS>MOLECULE
*****
 39 43 0 0 0
SMALL
GASTEIGER

@<TRIPOS>ATOM
      1 C          62.8811   88.8478   12.4874 C.3     1  UNL1        0.1408
      2 C          63.7550   88.4653   13.6449 C.3     1  UNL1        0.1231
      3 N          63.8799   86.9706   13.6572 N.am    1  UNL1       -0.2783
      4 C          64.4973   85.8103   14.3802 C.2     1  UNL1        0.2253
      5 O          65.3755   85.8937   15.5933 O.2     1  UNL1       -0.2749
      6 C          64.0821   84.5520   13.6771 C.3     1  UNL1        0.0807
      7 C          64.2071   83.0572   13.6894 C.3     1  UNL1        0.0360
      8 C          63.4104   82.5160   12.5395 C.3     1  UNL1        0.0889
      9 C          63.8818   81.1845   13.0441 C.3     1  UNL1        0.0293
     10 O          62.7123   81.6965   11.4950 O.3     1  UNL1       -0.3867
     11 C          62.7931   83.6763   11.8164 C.3     1  UNL1        0.0291
     12 C          63.2082   84.9346   12.5195 C.3     1  UNL1        0.0296
     13 C          63.0832   86.4293   12.5072 C.3     1  UNL1        0.0823
     14 C          62.4660   87.5895   11.7843 C.3     1  UNL1        0.0694
     15 H          62.8956   80.7560   11.6462 H       1  UNL1        0.2102
     16 C          61.5876   87.5062   10.5711 C.ar    1  UNL1       -0.0183
     17 C          61.8891   86.5065    9.4942 C.ar    1  UNL1       -0.0018
     18 C          61.0108   86.4232    8.2811 C.ar    1  UNL1        0.0293
     19 C          59.8310   87.3395    8.1449 C.ar    1  UNL1        0.1401
     20 F          58.9527   87.2561    6.9317 F       1  UNL1       -0.2042
     21 C          59.5296   88.3391    9.2218 C.ar    1  UNL1        0.0293
     22 C          60.4079   88.4225   10.4349 C.ar    1  UNL1       -0.0018
     23 O          62.4908   90.2436   12.1008 O.3     1  UNL1       -0.3522
     24 C          62.9449   90.9678    9.6473 C.3     1  UNL1        0.0370
     25 C          63.3124   91.0024   11.1011 C.3     1  UNL1        0.1375
     26 C          64.5016   91.7958   11.5554 C.ar    1  UNL1        0.0044
     27 C          64.8636   91.8382   13.0105 C.ar    1  UNL1        0.0019
     28 C          66.0528   92.6316   13.4648 C.ar    1  UNL1        0.0711
     29 C          66.8800   93.3826   12.4639 C.ar    1  UNL1        0.0077
     30 C          66.5181   93.3402   11.0088 C.ar    1  UNL1        0.0711
     31 C          65.3289   92.5468   10.5546 C.ar    1  UNL1        0.0019
     32 C          66.4147   92.6740   14.9197 C.3     1  UNL1        0.4186
     33 F          66.7766   92.7163   16.3748 F       1  UNL1       -0.1659
     34 F          66.9243   94.0748   14.7522 F       1  UNL1       -0.1659
     35 F          65.9051   91.2731   15.0873 F       1  UNL1       -0.1659
     36 C          67.3453   94.0912   10.0080 C.3     1  UNL1        0.4186
     37 F          68.1726   94.8422    9.0072 F       1  UNL1       -0.1659
     38 F          67.5870   92.8181    9.2524 F       1  UNL1       -0.1659
     39 F          67.1038   95.3642   10.7635 F       1  UNL1       -0.1659
@<TRIPOS>BOND
     1    25    24    1
     2    25    23    1
     3     1    23    1
     4     1     2    1
     5     2     3    1
     6     3     4   am
     7     4     5    2
     8     4     6    1
     9     6     7    1
    10     7     8    1
    11     8     9    1
    12     8    10    1
    13     8    11    1
    14    12    11    1
    15    12    13    1
    16    13    14    1
    17    14    16    1
    18    16    17   ar
    19    17    18   ar
    20    18    19   ar
    21    19    20    1
    22    19    21   ar
    23    21    22   ar
    24    25    26    1
    25    26    27   ar
    26    27    28   ar
    27    28    32    1
    28    32    33    1
    29    32    34    1
    30    32    35    1
    31    28    29   ar
    32    29    30   ar
    33    30    36    1
    34    36    37    1
    35    36    38    1
    36    36    39    1
    37    30    31   ar
    38    14     1    1
    39    22    16   ar
    40    31    26   ar
    41    13     3    1
    42    12     6    1
    43    10    15    1
@<TRIPOS>MOLECULE
*****
 39 43 0 0 0
SMALL
GASTEIGER

@<TRIPOS>ATOM
      1 C          62.8960   88.8237   12.5200 C.3     1  UNL1        0.1408
      2 C          63.7574   88.4269   13.6820 C.3     1  UNL1        0.1231
      3 N          63.8715   86.9312   13.6850 N.am    1  UNL1       -0.2783
      4 C          64.4744   85.7615   14.4049 C.2     1  UNL1        0.2253
      5 O          65.3431   85.8302   15.6259 O.2     1  UNL1       -0.2749
      6 C          64.0562   84.5111   13.6897 C.3     1  UNL1        0.0807
      7 C          64.1703   83.0155   13.6926 C.3     1  UNL1        0.0360
      8 C          63.3794   82.4880   12.5323 C.3     1  UNL1        0.0889
      9 C          63.8370   81.1496   13.0316 C.3     1  UNL1        0.0293
     10 O          62.6841   81.6808   11.4765 O.3     1  UNL1       -0.3867
     11 C          62.7764   83.6577   11.8123 C.3     1  UNL1        0.0291
     12 C          63.1947   84.9080   12.5276 C.3     1  UNL1        0.0296
     13 C          63.0806   86.4037   12.5247 C.3     1  UNL1        0.0823
     14 C          62.4777   87.5733   11.8047 C.3     1  UNL1        0.0694
     15 H          62.8594   80.7380   11.6226 H       1  UNL1        0.2102
     16 C          61.6090   87.5047   10.5838 C.ar    1  UNL1       -0.0183
     17 C          61.9187   86.5178    9.4974 C.ar    1  UNL1       -0.0018
     18 C          61.0499   86.4492    8.2765 C.ar    1  UNL1        0.0293
     19 C          59.8715   87.3675    8.1420 C.ar    1  UNL1        0.1401
     20 F          59.0028   87.2988    6.9210 F       1  UNL1       -0.2042
     21 C          59.5618   88.3544    9.2283 C.ar    1  UNL1        0.0293
     22 C          60.4305   88.4230   10.4492 C.ar    1  UNL1       -0.0018
     23 O          62.5189   90.2249   12.1399 O.3     1  UNL1       -0.3522
     24 C          62.9867   90.9176    9.6799 C.3     1  UNL1        0.0370
     25 C          63.3418   90.9768   11.1361 C.3     1  UNL1        0.1375
     26 C          64.5198   91.7878   11.5884 C.ar    1  UNL1        0.0044
     27 C          65.3284   92.5588   10.5874 C.ar    1  UNL1        0.0019
     28 C          66.5064   93.3698   11.0398 C.ar    1  UNL1        0.0711
     29 C          66.8758   93.4099   12.4930 C.ar    1  UNL1        0.0077
     30 C          66.0671   92.6389   13.4940 C.ar    1  UNL1        0.0711
     31 C          64.8891   91.8279   13.0417 C.ar    1  UNL1        0.0019
     32 C          67.3150   94.1407   10.0389 C.3     1  UNL1        0.4186
     33 F          68.1236   94.9115    9.0380 F       1  UNL1       -0.1659
     34 F          67.0671   95.4028   10.8106 F       1  UNL1       -0.1659
     35 F          67.5629   92.8785    9.2671 F       1  UNL1       -0.1659
     36 C          66.4365   92.6790   14.9473 C.3     1  UNL1        0.4186
     37 F          66.8059   92.7191   16.4005 F       1  UNL1       -0.1659
     38 F          66.9534   94.0769   14.7773 F       1  UNL1       -0.1659
     39 F          65.9196   91.2813   15.1172 F       1  UNL1       -0.1659
@<TRIPOS>BOND
     1    25    24    1
     2    25    23    1
     3     1    23    1
     4     1     2    1
     5     2     3    1
     6     3     4   am
     7     4     5    2
     8     4     6    1
     9     6     7    1
    10     7     8    1
    11     8     9    1
    12     8    10    1
    13     8    11    1
    14    12    11    1
    15    12    13    1
    16    13    14    1
    17    14    16    1
    18    16    17   ar
    19    17    18   ar
    20    18    19   ar
    21    19    20    1
    22    19    21   ar
    23    21    22   ar
    24    25    26    1
    25    26    27   ar
    26    27    28   ar
    27    28    32    1
    28    32    33    1
    29    32    34    1
    30    32    35    1
    31    28    29   ar
    32    29    30   ar
    33    30    36    1
    34    36    37    1
    35    36    38    1
    36    36    39    1
    37    30    31   ar
    38    14     1    1
    39    22    16   ar
    40    31    26   ar
    41    13     3    1
    42    12     6    1
    43    10    15    1
@<TRIPOS>MOLECULE
*****
 39 43 0 0 0
SMALL
GASTEIGER

@<TRIPOS>ATOM
      1 C          62.9123   89.3424   12.2409 C.3     1  UNL1        0.1408
      2 C          63.3193   90.4292   11.2906 C.3     1  UNL1        0.1231
      3 N          64.3444   91.2838   11.9754 N.am    1  UNL1       -0.2783
      4 C          65.2295   92.4837   11.8114 C.2     1  UNL1        0.2253
      5 O          65.3244   93.3488   10.5898 O.2     1  UNL1       -0.2749
      6 C          66.0030   92.6665   13.0836 C.3     1  UNL1        0.0807
      7 C          67.0280   93.5211   13.7684 C.3     1  UNL1        0.0360
      8 C          67.2545   92.9624   15.1419 C.3     1  UNL1        0.0889
      9 C          68.2295   94.0949   15.2706 C.3     1  UNL1        0.0293
     10 O          67.6848   92.6404   16.5423 O.3     1  UNL1       -0.3867
     11 C          66.3694   91.7625   15.3059 C.3     1  UNL1        0.0291
     12 C          65.5959   91.5796   14.0338 C.3     1  UNL1        0.0296
     13 C          64.5709   90.7250   13.3490 C.3     1  UNL1        0.0823
     14 C          63.6858   89.5252   13.5130 C.3     1  UNL1        0.0694
     15 H          68.3477   93.2860   16.8333 H       1  UNL1        0.2102
     16 C          63.5909   88.6600   14.7347 C.ar    1  UNL1       -0.0183
     17 C          62.8189   89.1331   15.9306 C.ar    1  UNL1       -0.0018
     18 C          62.7240   88.2679   17.1523 C.ar    1  UNL1        0.0293
     19 C          63.4010   86.9296   17.1780 C.ar    1  UNL1        0.1401
     20 F          63.3061   86.0644   18.3997 F       1  UNL1       -0.2042
     21 C          64.1730   86.4565   15.9821 C.ar    1  UNL1        0.0293
     22 C          64.2679   87.3217   14.7604 C.ar    1  UNL1       -0.0018
     23 O          61.9081   88.2622   11.9672 O.3     1  UNL1       -0.3522
     24 C          62.3701   87.3312    9.5860 C.3     1  UNL1        0.0370
     25 C          62.2653   87.1168   11.0669 C.3     1  UNL1        0.1375
     26 C          62.5178   85.7570   11.6475 C.ar    1  UNL1        0.0044
     27 C          62.9153   84.6211   10.7520 C.ar    1  UNL1        0.0019
     28 C          63.1678   83.2613   11.3326 C.ar    1  UNL1        0.0711
     29 C          63.0227   83.0372   12.8087 C.ar    1  UNL1        0.0077
     30 C          62.6251   84.1732   13.7042 C.ar    1  UNL1        0.0711
     31 C          62.3727   85.5330   13.1236 C.ar    1  UNL1        0.0019
     32 C          63.5653   82.1254   10.4373 C.3     1  UNL1        0.4186
     33 F          63.9629   80.9896    9.5418 F       1  UNL1       -0.1659
     34 F          63.0251   81.1474   11.4380 F       1  UNL1       -0.1659
     35 F          64.1055   83.1035    9.4364 F       1  UNL1       -0.1659
     36 C          62.4801   83.9492   15.1803 C.3     1  UNL1        0.4186
     37 F          62.3350   83.7252   16.6564 F       1  UNL1       -0.1659
     38 F          61.2798   84.8486   15.1988 F       1  UNL1       -0.1659
     39 F          63.6803   83.0498   15.1618 F       1  UNL1       -0.1659
@<TRIPOS>BOND
     1    25    24    1
     2    25    23    1
     3     1    23    1
     4     1     2    1
     5     2     3    1
     6     3     4   am
     7     4     5    2
     8     4     6    1
     9     6     7    1
    10     7     8    1
    11     8     9    1
    12     8    10    1
    13     8    11    1
    14    12    11    1
    15    12    13    1
    16    13    14    1
    17    14    16    1
    18    16    17   ar
    19    17    18   ar
    20    18    19   ar
    21    19    20    1
    22    19    21   ar
    23    21    22   ar
    24    25    26    1
    25    26    27   ar
    26    27    28   ar
    27    28    32    1
    28    32    33    1
    29    32    34    1
    30    32    35    1
    31    28    29   ar
    32    29    30   ar
    33    30    36    1
    34    36    37    1
    35    36    38    1
    36    36    39    1
    37    30    31   ar
    38    14     1    1
    39    22    16   ar
    40    31    26   ar
    41    13     3    1
    42    12     6    1
    43    10    15    1
