@<TRIPOS>MOLECULE
*****
 36 39 0 0 0
SMALL
GASTEIGER

@<TRIPOS>ATOM
      1 C          63.6939   86.8823   15.7750 C.3     1  UNL1        0.1812
      2 O          64.2496   87.1512   14.4080 O.3     1  UNL1       -0.3784
      3 H          64.4673   86.3103   13.9763 H       1  UNL1        0.2106
      4 C          63.1382   86.6134   17.1420 C.3     1  UNL1        0.4197
      5 F          62.5824   86.3445   18.5091 F       1  UNL1       -0.1676
      6 F          63.9207   85.3353   17.2088 F       1  UNL1       -0.1676
      7 F          62.3558   87.8913   17.0753 F       1  UNL1       -0.1676
      8 C          63.8544   85.4079   15.5503 C.3     1  UNL1        0.0399
      9 C          62.1587   84.9841   14.3481 C.3     1  UNL1        0.0045
     10 C          63.6416   84.8302   14.1824 C.3     1  UNL1        0.0227
     11 C          65.1393   84.7478   14.1846 C.3     1  UNL1        0.0045
     12 C          63.4288   84.2525   12.8146 C.ar    1  UNL1       -0.0059
     13 C          63.4035   85.1535   11.6155 C.ar    1  UNL1       -0.0030
     14 C          63.1907   84.5759   10.2477 C.ar    1  UNL1       -0.0006
     15 C          63.0032   83.0972   10.0789 C.ar    1  UNL1       -0.0030
     16 C          63.0285   82.1963   11.2779 C.ar    1  UNL1       -0.0036
     17 C          63.2413   82.7739   12.6457 C.ar    1  UNL1        0.0977
     18 S          63.2180   81.6458   13.6340 S.O2    1  UNL1        0.0084
     19 O          63.4489   82.5999   14.7683 O.2     1  UNL1       -0.1686
     20 O          63.2433   80.7449   14.8330 O.2     1  UNL1       -0.1686
     21 C          62.9908   80.3709   12.8771 C.3     1  UNL1        0.1606
     22 C          62.8737   80.7111   11.4209 C.3     1  UNL1        0.0534
     23 C          63.5334   88.3566   15.9998 C.3     1  UNL1        0.0811
     24 C          63.8337   89.3213   14.8912 C.2     1  UNL1        0.0613
     25 C          64.8782   90.3977   14.9177 C.2     1  UNL1        0.0161
     26 C          64.8324   91.1207   13.6043 C.2     1  UNL1        0.0195
     27 C          65.6289   92.2709   13.0634 C.2     1  UNL1        0.0388
     28 C          65.3525   92.7916   11.6840 C.2     1  UNL1        0.1823
     29 N          64.2797   92.1622   10.8457 N.2     1  UNL1       -0.2468
     30 C          63.4832   91.0120   11.3866 C.3     1  UNL1        0.1722
     31 C          63.7595   90.4912   12.7659 C.2     1  UNL1        0.0833
     32 N          63.1423   89.3791   13.5612 N.2     1  UNL1       -0.2519
     33 S          66.1490   93.9419   11.1431 S.O2    1  UNL1        0.0265
     34 C          66.9455   95.0921   10.6022 C.3     1  UNL1        0.1834
     35 O          66.1316   94.5900   12.4957 O.2     1  UNL1       -0.1671
     36 O          66.1664   93.2937    9.7905 O.2     1  UNL1       -0.1671
@<TRIPOS>BOND
     1     9    10    1
     2    10    11    1
     3    10     8    1
     4     8     1    1
     5     1     2    1
     6     1    23    1
     7    23    24    1
     8    24    25    2
     9    25    26    1
    10    26    27    2
    11    27    28    1
    12    28    33    1
    13    33    34    1
    14    33    35    2
    15    33    36    2
    16    28    29    2
    17    29    30    1
    18    30    31    1
    19    31    32    2
    20     1     4    1
    21     4     5    1
    22     4     6    1
    23     4     7    1
    24    10    12    1
    25    12    13   ar
    26    13    14   ar
    27    14    15   ar
    28    15    16   ar
    29    16    17   ar
    30    17    18    1
    31    18    19    2
    32    18    20    2
    33    18    21    1
    34    21    22    1
    35    32    24    1
    36    17    12   ar
    37    31    26    1
    38    22    16    1
    39     2     3    1
@<TRIPOS>MOLECULE
*****
 36 39 0 0 0
SMALL
GASTEIGER

@<TRIPOS>ATOM
      1 C          61.3604   89.1591   10.6366 C.3     1  UNL1        0.1812
      2 O          62.5686   88.5296   10.0090 O.3     1  UNL1       -0.3784
      3 H          62.5161   87.5656   10.1022 H       1  UNL1        0.2106
      4 C          60.1522   89.7886   11.2642 C.3     1  UNL1        0.4197
      5 F          58.9439   90.4182   11.8918 F       1  UNL1       -0.1676
      6 F          60.6389   89.3710   12.6202 F       1  UNL1       -0.1676
      7 F          59.6654   90.2063    9.9083 F       1  UNL1       -0.1676
      8 C          60.8471   87.8004   11.0114 C.3     1  UNL1        0.0399
      9 C          62.7443   87.1424   11.6951 C.3     1  UNL1        0.0045
     10 C          61.6967   86.5867   10.7766 C.3     1  UNL1        0.0227
     11 C          60.5533   86.1831    9.8935 C.3     1  UNL1        0.0045
     12 C          62.5462   85.3730   10.5418 C.ar    1  UNL1       -0.0059
     13 C          63.0707   85.0791    9.1675 C.ar    1  UNL1       -0.0030
     14 C          63.9203   83.8654    8.9326 C.ar    1  UNL1       -0.0006
     15 C          64.2454   82.9456   10.0721 C.ar    1  UNL1       -0.0030
     16 C          63.7210   83.2395   11.4463 C.ar    1  UNL1       -0.0036
     17 C          62.8714   84.4532   11.6812 C.ar    1  UNL1        0.0977
     18 S          62.4994   84.4846   13.1340 S.O2    1  UNL1        0.0084
     19 O          61.7205   85.7509   12.9343 O.2     1  UNL1       -0.1686
     20 O          61.9749   84.7785   14.5082 O.2     1  UNL1       -0.1686
     21 C          63.1191   83.2903   13.7971 C.3     1  UNL1        0.1606
     22 C          63.8740   82.5208   12.7540 C.3     1  UNL1        0.0534
     23 C          61.8736   90.5178   10.2618 C.3     1  UNL1        0.0811
     24 C          63.0805   91.0804   10.9525 C.2     1  UNL1        0.0613
     25 C          63.5368   90.7467   12.3419 C.2     1  UNL1        0.0161
     26 C          64.7813   91.5354   12.6231 C.2     1  UNL1        0.0195
     27 C          65.6700   91.6120   13.8291 C.2     1  UNL1        0.0388
     28 C          66.8717   92.5097   13.8193 C.2     1  UNL1        0.1823
     29 N          67.1846   93.3309   12.6037 N.2     1  UNL1       -0.2468
     30 C          66.2959   93.2543   11.3978 C.3     1  UNL1        0.1722
     31 C          65.0942   92.3566   11.4075 C.2     1  UNL1        0.0833
     32 N          64.0431   92.0753   10.3749 N.2     1  UNL1       -0.2519
     33 S          67.7605   92.5863   15.0253 S.O2    1  UNL1        0.0265
     34 C          68.6492   92.6629   16.2312 C.3     1  UNL1        0.1834
     35 O          68.9688   92.5247   14.1387 O.2     1  UNL1       -0.1671
     36 O          66.5521   92.6480   15.9119 O.2     1  UNL1       -0.1671
@<TRIPOS>BOND
     1     9    10    1
     2    10    11    1
     3    10     8    1
     4     8     1    1
     5     1     2    1
     6     1    23    1
     7    23    24    1
     8    24    25    2
     9    25    26    1
    10    26    27    2
    11    27    28    1
    12    28    33    1
    13    33    34    1
    14    33    35    2
    15    33    36    2
    16    28    29    2
    17    29    30    1
    18    30    31    1
    19    31    32    2
    20     1     4    1
    21     4     5    1
    22     4     6    1
    23     4     7    1
    24    10    12    1
    25    12    13   ar
    26    13    14   ar
    27    14    15   ar
    28    15    16   ar
    29    16    17   ar
    30    17    18    1
    31    18    19    2
    32    18    20    2
    33    18    21    1
    34    21    22    1
    35    32    24    1
    36    17    12   ar
    37    31    26    1
    38    22    16    1
    39     2     3    1
@<TRIPOS>MOLECULE
*****
 36 39 0 0 0
SMALL
GASTEIGER

@<TRIPOS>ATOM
      1 C          61.8309   87.0693   10.2041 C.3     1  UNL1        0.1812
      2 O          63.0586   87.2558   11.0453 O.3     1  UNL1       -0.3784
      3 H          63.6330   86.4793   10.9556 H       1  UNL1        0.2106
      4 C          60.6031   86.8829    9.3628 C.3     1  UNL1        0.4197
      5 F          59.3753   86.6964    8.5214 F       1  UNL1       -0.1676
      6 F          59.7661   87.4894   10.4498 F       1  UNL1       -0.1676
      7 F          61.4400   86.2765    8.2757 F       1  UNL1       -0.1676
      8 C          62.3389   85.7299    9.7593 C.3     1  UNL1        0.0399
      9 C          61.4475   85.1474   11.5940 C.3     1  UNL1        0.0045
     10 C          62.5997   84.6531   10.7706 C.3     1  UNL1        0.0227
     11 C          63.7116   84.2938    9.8301 C.3     1  UNL1        0.0045
     12 C          62.8606   83.5764   11.7819 C.ar    1  UNL1       -0.0059
     13 C          62.6154   82.1395   11.4277 C.ar    1  UNL1       -0.0030
     14 C          62.8762   81.0628   12.4389 C.ar    1  UNL1       -0.0006
     15 C          63.3822   81.4230   13.8044 C.ar    1  UNL1       -0.0030
     16 C          63.6273   82.8598   14.1585 C.ar    1  UNL1       -0.0036
     17 C          63.3665   83.9365   13.1472 C.ar    1  UNL1        0.0977
     18 S          63.6983   85.2559   13.7790 S.O2    1  UNL1        0.0084
     19 O          63.3221   85.9823   12.5216 O.2     1  UNL1       -0.1686
     20 O          63.9434   86.6927   14.1331 O.2     1  UNL1       -0.1686
     21 C          64.1641   84.9947   15.1806 C.3     1  UNL1        0.1606
     22 C          64.1203   83.5138   15.4152 C.3     1  UNL1        0.0534
     23 C          61.3228   88.4087   10.6488 C.3     1  UNL1        0.0811
     24 C          62.2908   89.5023   10.9908 C.2     1  UNL1        0.0613
     25 C          62.8138   90.5441   10.0467 C.2     1  UNL1        0.0161
     26 C          63.7521   91.4317   10.8095 C.2     1  UNL1        0.0195
     27 C          64.5620   92.6253   10.3980 C.2     1  UNL1        0.0388
     28 C          65.4288   93.3258   11.4020 C.2     1  UNL1        0.1823
     29 N          65.4858   92.8326   12.8174 N.2     1  UNL1       -0.2468
     30 C          64.6759   91.6390   13.2289 C.3     1  UNL1        0.1722
     31 C          63.8090   90.9385   12.2250 C.2     1  UNL1        0.0833
     32 N          62.9059   89.7460   12.3370 N.2     1  UNL1       -0.2519
     33 S          66.2387   94.5194   10.9905 S.O2    1  UNL1        0.0265
     34 C          67.0486   95.7130   10.5790 C.3     1  UNL1        0.1834
     35 O          66.3288   93.9771    9.5949 O.2     1  UNL1       -0.1671
     36 O          66.1486   95.0617   12.3861 O.2     1  UNL1       -0.1671
@<TRIPOS>BOND
     1     9    10    1
     2    10    11    1
     3    10     8    1
     4     8     1    1
     5     1     2    1
     6     1    23    1
     7    23    24    1
     8    24    25    2
     9    25    26    1
    10    26    27    2
    11    27    28    1
    12    28    33    1
    13    33    34    1
    14    33    35    2
    15    33    36    2
    16    28    29    2
    17    29    30    1
    18    30    31    1
    19    31    32    2
    20     1     4    1
    21     4     5    1
    22     4     6    1
    23     4     7    1
    24    10    12    1
    25    12    13   ar
    26    13    14   ar
    27    14    15   ar
    28    15    16   ar
    29    16    17   ar
    30    17    18    1
    31    18    19    2
    32    18    20    2
    33    18    21    1
    34    21    22    1
    35    32    24    1
    36    17    12   ar
    37    31    26    1
    38    22    16    1
    39     2     3    1
@<TRIPOS>MOLECULE
*****
 36 39 0 0 0
SMALL
GASTEIGER

@<TRIPOS>ATOM
      1 C          61.6241   87.5961    9.8337 C.3     1  UNL1        0.1812
      2 O          63.0459   87.8090   10.2614 O.3     1  UNL1       -0.3784
      3 H          63.5610   87.0067   10.0826 H       1  UNL1        0.2106
      4 C          60.2023   87.3833    9.4059 C.3     1  UNL1        0.4197
      5 F          58.7804   87.1704    8.9781 F       1  UNL1       -0.1676
      6 F          59.7248   88.0719   10.6501 F       1  UNL1       -0.1676
      7 F          60.6796   86.6946    8.1618 F       1  UNL1       -0.1676
      8 C          61.9661   86.2049    9.3890 C.3     1  UNL1        0.0399
      9 C          61.2820   85.6704   11.3245 C.3     1  UNL1        0.0045
     10 C          62.3520   85.1675   10.4014 C.3     1  UNL1        0.0227
     11 C          63.3670   84.7949    9.3618 C.3     1  UNL1        0.0045
     12 C          62.7379   84.1302   11.4138 C.ar    1  UNL1       -0.0059
     13 C          62.5563   82.6741   11.1022 C.ar    1  UNL1       -0.0030
     14 C          62.9422   81.6367   12.1146 C.ar    1  UNL1       -0.0006
     15 C          63.5097   82.0554   13.4386 C.ar    1  UNL1       -0.0030
     16 C          63.6912   83.5114   13.7501 C.ar    1  UNL1       -0.0036
     17 C          63.3053   84.5488   12.7377 C.ar    1  UNL1        0.0977
     18 S          63.5974   85.8987   13.3229 S.O2    1  UNL1        0.0084
     19 O          63.1019   86.5744   12.0787 O.2     1  UNL1       -0.1686
     20 O          63.7790   87.3547   13.6344 O.2     1  UNL1       -0.1686
     21 C          64.1638   85.6956   14.6969 C.3     1  UNL1        0.1606
     22 C          64.2218   84.2202   14.9609 C.3     1  UNL1        0.0534
     23 C          61.2821   88.9872   10.2783 C.3     1  UNL1        0.0811
     24 C          62.3504   89.8802   10.8362 C.2     1  UNL1        0.0613
     25 C          62.8478   89.8822   12.2514 C.2     1  UNL1        0.0161
     26 C          63.9137   90.9312   12.3666 C.2     1  UNL1        0.0195
     27 C          64.7582   91.3814   13.5217 C.2     1  UNL1        0.0388
     28 C          65.7642   92.4780   13.3328 C.2     1  UNL1        0.1823
     29 N          65.9256   93.1244   11.9889 N.2     1  UNL1       -0.2468
     30 C          65.0811   92.6743   10.8339 C.3     1  UNL1        0.1722
     31 C          64.0752   91.5777   11.0227 C.2     1  UNL1        0.0833
     32 N          63.1089   90.9281   10.0768 N.2     1  UNL1       -0.2519
     33 S          66.6087   92.9282   14.4879 S.O2    1  UNL1        0.0265
     34 C          67.4532   93.3783   15.6429 C.3     1  UNL1        0.1834
     35 O          65.4364   92.7637   15.4091 O.2     1  UNL1       -0.1671
     36 O          67.7810   93.0927   13.5667 O.2     1  UNL1       -0.1671
@<TRIPOS>BOND
     1     9    10    1
     2    10    11    1
     3    10     8    1
     4     8     1    1
     5     1     2    1
     6     1    23    1
     7    23    24    1
     8    24    25    2
     9    25    26    1
    10    26    27    2
    11    27    28    1
    12    28    33    1
    13    33    34    1
    14    33    35    2
    15    33    36    2
    16    28    29    2
    17    29    30    1
    18    30    31    1
    19    31    32    2
    20     1     4    1
    21     4     5    1
    22     4     6    1
    23     4     7    1
    24    10    12    1
    25    12    13   ar
    26    13    14   ar
    27    14    15   ar
    28    15    16   ar
    29    16    17   ar
    30    17    18    1
    31    18    19    2
    32    18    20    2
    33    18    21    1
    34    21    22    1
    35    32    24    1
    36    17    12   ar
    37    31    26    1
    38    22    16    1
    39     2     3    1
@<TRIPOS>MOLECULE
*****
 36 39 0 0 0
SMALL
GASTEIGER

@<TRIPOS>ATOM
      1 C          63.6896   87.0829   15.7977 C.3     1  UNL1        0.1812
      2 O          64.3530   87.2656   14.4649 O.3     1  UNL1       -0.3784
      3 H          64.6173   86.4008   14.1140 H       1  UNL1        0.2106
      4 C          63.0262   86.9002   17.1305 C.3     1  UNL1        0.4197
      5 F          62.3627   86.7175   18.4634 F       1  UNL1       -0.1676
      6 F          62.2645   88.1763   16.9264 F       1  UNL1       -0.1676
      7 F          63.7878   85.6242   17.3347 F       1  UNL1       -0.1676
      8 C          63.8885   85.5998   15.6934 C.3     1  UNL1        0.0399
      9 C          62.4475   84.5510   14.5430 C.3     1  UNL1        0.0045
     10 C          63.8843   84.9352   14.3487 C.3     1  UNL1        0.0227
     11 C          65.3110   85.3976   14.3197 C.3     1  UNL1        0.0045
     12 C          63.8802   84.2707   13.0039 C.ar    1  UNL1       -0.0059
     13 C          64.5216   82.9259   12.8300 C.ar    1  UNL1       -0.0030
     14 C          64.5175   82.2613   11.4852 C.ar    1  UNL1       -0.0006
     15 C          63.8720   82.9416   10.3144 C.ar    1  UNL1       -0.0030
     16 C          63.2306   84.2863   10.4885 C.ar    1  UNL1       -0.0036
     17 C          63.2347   84.9508   11.8332 C.ar    1  UNL1        0.0977
     18 S          62.5294   86.2681   11.7014 S.O2    1  UNL1        0.0084
     19 O          62.7505   86.5618   13.1557 O.2     1  UNL1       -0.1686
     20 O          61.8880   87.6128   11.8754 O.2     1  UNL1       -0.1686
     21 C          62.0893   86.4177   10.2753 C.3     1  UNL1        0.1606
     22 C          62.5227   85.1928    9.5256 C.3     1  UNL1        0.0534
     23 C          63.4907   88.5660   15.9020 C.3     1  UNL1        0.0811
     24 C          63.8260   89.4513   14.7385 C.2     1  UNL1        0.0613
     25 C          65.0121   90.3641   14.6381 C.2     1  UNL1        0.0161
     26 C          64.9532   91.0562   13.3086 C.2     1  UNL1        0.0195
     27 C          65.8548   92.0654   12.6617 C.2     1  UNL1        0.0388
     28 C          65.5339   92.5896   11.2933 C.2     1  UNL1        0.1823
     29 N          64.3115   92.1045   10.5720 N.2     1  UNL1       -0.2468
     30 C          63.4099   91.0953   11.2189 C.3     1  UNL1        0.1722
     31 C          63.7308   90.5711   12.5872 C.2     1  UNL1        0.0833
     32 N          63.0341   89.5792   13.4709 N.2     1  UNL1       -0.2519
     33 S          66.4355   93.5988   10.6463 S.O2    1  UNL1        0.0265
     34 C          67.3371   94.6081    9.9994 C.3     1  UNL1        0.1834
     35 O          65.7155   94.7020   11.3638 O.2     1  UNL1       -0.1671
     36 O          67.1555   92.4957    9.9288 O.2     1  UNL1       -0.1671
@<TRIPOS>BOND
     1     9    10    1
     2    10    11    1
     3    10     8    1
     4     8     1    1
     5     1     2    1
     6     1    23    1
     7    23    24    1
     8    24    25    2
     9    25    26    1
    10    26    27    2
    11    27    28    1
    12    28    33    1
    13    33    34    1
    14    33    35    2
    15    33    36    2
    16    28    29    2
    17    29    30    1
    18    30    31    1
    19    31    32    2
    20     1     4    1
    21     4     5    1
    22     4     6    1
    23     4     7    1
    24    10    12    1
    25    12    13   ar
    26    13    14   ar
    27    14    15   ar
    28    15    16   ar
    29    16    17   ar
    30    17    18    1
    31    18    19    2
    32    18    20    2
    33    18    21    1
    34    21    22    1
    35    32    24    1
    36    17    12   ar
    37    31    26    1
    38    22    16    1
    39     2     3    1
@<TRIPOS>MOLECULE
*****
 36 39 0 0 0
SMALL
GASTEIGER

@<TRIPOS>ATOM
      1 C          61.7353   89.1602   11.2747 C.3     1  UNL1        0.1812
      2 O          62.2612   89.0454   12.6748 O.3     1  UNL1       -0.3784
      3 H          61.9778   88.2008   13.0583 H       1  UNL1        0.2106
      4 C          61.2094   89.2751    9.8747 C.3     1  UNL1        0.4197
      5 F          60.6834   89.3899    8.4746 F       1  UNL1       -0.1676
      6 F          62.6107   89.2128    9.3431 F       1  UNL1       -0.1676
      7 F          59.8081   89.3373   10.4061 F       1  UNL1       -0.1676
      8 C          61.0844   87.8154   11.4088 C.3     1  UNL1        0.0399
      9 C          60.6940   86.0928   10.2341 C.3     1  UNL1        0.0045
     10 C          61.8501   86.5736   11.0601 C.3     1  UNL1        0.0227
     11 C          62.9042   87.2021   11.9225 C.3     1  UNL1        0.0045
     12 C          62.6157   85.3317   10.7113 C.ar    1  UNL1       -0.0059
     13 C          63.0696   85.1019    9.3002 C.ar    1  UNL1       -0.0030
     14 C          63.8352   83.8601    8.9515 C.ar    1  UNL1       -0.0006
     15 C          64.1469   82.8480   10.0138 C.ar    1  UNL1       -0.0030
     16 C          63.6930   83.0778   11.4249 C.ar    1  UNL1       -0.0036
     17 C          62.9274   84.3196   11.7736 C.ar    1  UNL1        0.0977
     18 S          62.6127   84.2738   13.2395 S.O2    1  UNL1        0.0084
     19 O          61.9045   85.5935   13.1556 O.2     1  UNL1       -0.1686
     20 O          62.1587   84.5036   14.6506 O.2     1  UNL1       -0.1686
     21 C          63.1838   83.0037   13.7968 C.3     1  UNL1        0.1606
     22 C          63.8515   82.2645   12.6753 C.3     1  UNL1        0.0534
     23 C          62.3861   90.5050   11.1405 C.3     1  UNL1        0.0811
     24 C          63.3617   90.9730   12.1793 C.2     1  UNL1        0.0613
     25 C          64.7240   91.5431   11.9162 C.2     1  UNL1        0.0161
     26 C          65.3506   91.8755   13.2378 C.2     1  UNL1        0.0195
     27 C          66.6831   92.4631   13.5974 C.2     1  UNL1        0.0388
     28 C          67.0405   92.6861   15.0371 C.2     1  UNL1        0.1823
     29 N          66.0655   92.3215   16.1171 N.2     1  UNL1       -0.2468
     30 C          64.7331   91.7339   15.7575 C.3     1  UNL1        0.1722
     31 C          64.3756   91.5109   14.3179 C.2     1  UNL1        0.0833
     32 N          63.1464   90.9531   13.6637 N.2     1  UNL1       -0.2519
     33 S          68.3729   93.2738   15.3967 S.O2    1  UNL1        0.0265
     34 C          69.7054   93.8614   15.7563 C.3     1  UNL1        0.1834
     35 O          67.7555   93.9450   16.5876 O.2     1  UNL1       -0.1671
     36 O          68.9904   92.6025   14.2058 O.2     1  UNL1       -0.1671
@<TRIPOS>BOND
     1     9    10    1
     2    10    11    1
     3    10     8    1
     4     8     1    1
     5     1     2    1
     6     1    23    1
     7    23    24    1
     8    24    25    2
     9    25    26    1
    10    26    27    2
    11    27    28    1
    12    28    33    1
    13    33    34    1
    14    33    35    2
    15    33    36    2
    16    28    29    2
    17    29    30    1
    18    30    31    1
    19    31    32    2
    20     1     4    1
    21     4     5    1
    22     4     6    1
    23     4     7    1
    24    10    12    1
    25    12    13   ar
    26    13    14   ar
    27    14    15   ar
    28    15    16   ar
    29    16    17   ar
    30    17    18    1
    31    18    19    2
    32    18    20    2
    33    18    21    1
    34    21    22    1
    35    32    24    1
    36    17    12   ar
    37    31    26    1
    38    22    16    1
    39     2     3    1
@<TRIPOS>MOLECULE
*****
 36 39 0 0 0
SMALL
GASTEIGER

@<TRIPOS>ATOM
      1 C          61.8942   87.2301   10.1005 C.3     1  UNL1        0.1812
      2 O          62.7987   87.4519   11.2765 O.3     1  UNL1       -0.3784
      3 H          63.1758   86.6039   11.5588 H       1  UNL1        0.2106
      4 C          60.9898   87.0083    8.9246 C.3     1  UNL1        0.4197
      5 F          60.0854   86.7865    7.7486 F       1  UNL1       -0.1676
      6 F          59.9209   87.8208    9.5935 F       1  UNL1       -0.1676
      7 F          62.0587   86.1958    8.2558 F       1  UNL1       -0.1676
      8 C          62.1930   85.7608   10.1478 C.3     1  UNL1        0.0399
      9 C          63.9170   84.6528   10.6956 C.3     1  UNL1        0.0045
     10 C          62.6945   85.1379   11.4168 C.3     1  UNL1        0.0227
     11 C          61.4201   85.6954   11.9780 C.3     1  UNL1        0.0045
     12 C          63.1960   84.5150   12.6859 C.ar    1  UNL1       -0.0059
     13 C          63.6685   85.3851   13.8127 C.ar    1  UNL1       -0.0030
     14 C          64.1700   84.7622   15.0818 C.ar    1  UNL1       -0.0006
     15 C          64.1991   83.2692   15.2239 C.ar    1  UNL1       -0.0030
     16 C          63.7266   82.3991   14.0971 C.ar    1  UNL1       -0.0036
     17 C          63.2251   83.0221   12.8280 C.ar    1  UNL1        0.0977
     18 S          62.8267   81.9170   11.8952 S.O2    1  UNL1        0.0084
     19 O          62.4219   82.9116   10.8478 O.2     1  UNL1       -0.1686
     20 O          62.3543   81.0470   10.7684 O.2     1  UNL1       -0.1686
     21 C          63.0819   80.6112   12.5877 C.3     1  UNL1        0.1606
     22 C          63.6381   80.9091   13.9485 C.3     1  UNL1        0.0534
     23 C          61.5955   88.6992   10.0533 C.3     1  UNL1        0.0811
     24 C          62.5684   89.6815   10.6351 C.2     1  UNL1        0.0613
     25 C          63.1016   89.6694   12.0371 C.2     1  UNL1        0.0161
     26 C          64.0417   90.8288   12.1855 C.2     1  UNL1        0.0195
     27 C          64.8604   91.3151   13.3445 C.2     1  UNL1        0.0388
     28 C          65.7269   92.5302   13.1932 C.2     1  UNL1        0.1823
     29 N          65.7747   93.2588   11.8830 N.2     1  UNL1       -0.2468
     30 C          64.9561   92.7725   10.7240 C.3     1  UNL1        0.1722
     31 C          64.0896   91.5575   10.8753 C.2     1  UNL1        0.0833
     32 N          63.1790   90.8484    9.9170 N.2     1  UNL1       -0.2519
     33 S          66.5456   93.0166   14.3522 S.O2    1  UNL1        0.0265
     34 C          67.3643   93.5029   15.5112 C.3     1  UNL1        0.1834
     35 O          66.2906   94.4352   13.9370 O.2     1  UNL1       -0.1671
     36 O          66.8006   91.5979   14.7674 O.2     1  UNL1       -0.1671
@<TRIPOS>BOND
     1     9    10    1
     2    10    11    1
     3    10     8    1
     4     8     1    1
     5     1     2    1
     6     1    23    1
     7    23    24    1
     8    24    25    2
     9    25    26    1
    10    26    27    2
    11    27    28    1
    12    28    33    1
    13    33    34    1
    14    33    35    2
    15    33    36    2
    16    28    29    2
    17    29    30    1
    18    30    31    1
    19    31    32    2
    20     1     4    1
    21     4     5    1
    22     4     6    1
    23     4     7    1
    24    10    12    1
    25    12    13   ar
    26    13    14   ar
    27    14    15   ar
    28    15    16   ar
    29    16    17   ar
    30    17    18    1
    31    18    19    2
    32    18    20    2
    33    18    21    1
    34    21    22    1
    35    32    24    1
    36    17    12   ar
    37    31    26    1
    38    22    16    1
    39     2     3    1
@<TRIPOS>MOLECULE
*****
 36 39 0 0 0
SMALL
GASTEIGER

@<TRIPOS>ATOM
      1 C          62.9063   84.3993   15.1460 C.3     1  UNL1        0.1812
      2 O          61.7211   85.3098   15.0196 O.3     1  UNL1       -0.3784
      3 H          61.1205   84.9663   14.3398 H       1  UNL1        0.2106
      4 C          64.0916   83.4888   15.2725 C.3     1  UNL1        0.4197
      5 F          65.2769   82.5782   15.3989 F       1  UNL1       -0.1676
      6 F          65.0083   84.6751   15.2223 F       1  UNL1       -0.1676
      7 F          63.1750   82.3025   15.3226 F       1  UNL1       -0.1676
      8 C          62.3403   83.5138   14.0757 C.3     1  UNL1        0.0399
      9 C          63.3686   85.0454   13.0284 C.3     1  UNL1        0.0045
     10 C          62.6420   83.7940   12.6333 C.3     1  UNL1        0.0227
     11 C          61.8840   82.5179   12.4169 C.3     1  UNL1        0.0045
     12 C          62.9436   84.0743   11.1909 C.ar    1  UNL1       -0.0059
     13 C          63.8605   83.1662   10.4262 C.ar    1  UNL1       -0.0030
     14 C          64.1622   83.4464    8.9838 C.ar    1  UNL1       -0.0006
     15 C          63.5469   84.6348    8.3061 C.ar    1  UNL1       -0.0030
     16 C          62.6300   85.5428    9.0708 C.ar    1  UNL1       -0.0036
     17 C          62.3284   85.2626   10.5131 C.ar    1  UNL1        0.0977
     18 S          61.3938   86.3271   11.0066 S.O2    1  UNL1        0.0084
     19 O          61.3640   85.7053   12.3713 O.2     1  UNL1       -0.1686
     20 O          60.4770   87.2352   11.7712 O.2     1  UNL1       -0.1686
     21 C          61.1179   87.2653    9.8692 C.3     1  UNL1        0.1606
     22 C          61.8819   86.7806    8.6728 C.3     1  UNL1        0.0534
     23 C          63.4723   85.2847   16.2163 C.3     1  UNL1        0.0811
     24 C          63.6848   86.7450   15.9470 C.2     1  UNL1        0.0613
     25 C          64.5230   87.3258   14.8469 C.2     1  UNL1        0.0161
     26 C          64.4526   88.8206   14.9505 C.2     1  UNL1        0.0195
     27 C          65.0775   89.9137   14.1352 C.2     1  UNL1        0.0388
     28 C          64.8206   91.3499   14.4840 C.2     1  UNL1        0.1823
     29 N          63.9389   91.6928   15.6480 N.2     1  UNL1       -0.2468
     30 C          63.3140   90.5997   16.4633 C.3     1  UNL1        0.1722
     31 C          63.5709   89.1636   16.1145 C.2     1  UNL1        0.0833
     32 N          63.0963   87.8808   16.7304 N.2     1  UNL1       -0.2519
     33 S          65.4454   92.4430   13.6687 S.O2    1  UNL1        0.0265
     34 C          66.0703   93.5361   12.8535 C.3     1  UNL1        0.1834
     35 O          64.9434   91.7935   12.4132 O.2     1  UNL1       -0.1671
     36 O          65.9474   93.0924   14.9242 O.2     1  UNL1       -0.1671
@<TRIPOS>BOND
     1     9    10    1
     2    10    11    1
     3    10     8    1
     4     8     1    1
     5     1     2    1
     6     1    23    1
     7    23    24    1
     8    24    25    2
     9    25    26    1
    10    26    27    2
    11    27    28    1
    12    28    33    1
    13    33    34    1
    14    33    35    2
    15    33    36    2
    16    28    29    2
    17    29    30    1
    18    30    31    1
    19    31    32    2
    20     1     4    1
    21     4     5    1
    22     4     6    1
    23     4     7    1
    24    10    12    1
    25    12    13   ar
    26    13    14   ar
    27    14    15   ar
    28    15    16   ar
    29    16    17   ar
    30    17    18    1
    31    18    19    2
    32    18    20    2
    33    18    21    1
    34    21    22    1
    35    32    24    1
    36    17    12   ar
    37    31    26    1
    38    22    16    1
    39     2     3    1
