@<TRIPOS>MOLECULE
*****
 27 27 0 0 0
SMALL
GASTEIGER

@<TRIPOS>ATOM
      1 C          59.9107   87.4434    8.6328 C.2     1  UNL1        0.1534
      2 O          58.6090   87.5502    7.8952 O.2     1  UNL1       -0.2960
      3 C          60.5359   88.6683    9.2320 C.3     1  UNL1        0.0937
      4 C          60.4576   88.9029   10.7115 C.3     1  UNL1        0.1179
      5 O          59.8456   87.8644   11.6042 O.3     1  UNL1       -0.3840
      6 H          59.5534   87.1097   11.0693 H       1  UNL1        0.2104
      7 C          60.9912   90.1761   11.2982 C.3     1  UNL1        0.0297
      8 C          62.4022   90.5989   11.0148 C.3     1  UNL1        0.0025
      9 C          63.4762   90.3587   12.0341 C.3     1  UNL1        0.0001
     10 C          63.3586   89.2095   12.9909 C.3     1  UNL1        0.0000
     11 C          64.1873   89.1865   14.2409 C.3     1  UNL1        0.0000
     12 C          63.7022   89.8871   15.4754 C.3     1  UNL1        0.0000
     13 C          63.1128   89.0952   16.6046 C.3     1  UNL1        0.0000
     14 C          62.7382   86.8171   17.7964 C.3     1  UNL1        0.0000
     15 C          63.2473   87.6013   16.6234 C.3     1  UNL1        0.0000
     16 C          60.5873   86.1119    8.7712 C.3     1  UNL1        0.0693
     17 C          62.0824   86.0364    8.8649 C.3     1  UNL1        0.0342
     18 C          62.7259   85.2160    9.9433 C.ar    1  UNL1       -0.0185
     19 C          63.5734   84.0328    9.5806 C.ar    1  UNL1       -0.0009
     20 C          64.2169   83.2124   10.6589 C.ar    1  UNL1        0.0395
     21 C          64.0128   83.5751   12.1000 C.ar    1  UNL1        0.1677
     22 O          64.6562   82.7547   13.1783 O.3     1  UNL1       -0.5029
     23 C          63.1652   84.7583   12.4627 C.ar    1  UNL1        0.1718
     24 C          62.5217   85.5788   11.3843 C.ar    1  UNL1        0.0358
     25 H          65.1857   82.0156   12.9518 H       1  UNL1        0.2923
     26 O          62.9610   85.1211   13.9038 O.3     1  UNL1       -0.4684
     27 C          62.2276   84.1837   14.8166 C.3     1  UNL1        0.2526
@<TRIPOS>BOND
     1    14    15    1
     2    15    13    1
     3    13    12    1
     4    12    11    1
     5    11    10    1
     6    10     9    1
     7     9     8    1
     8     8     7    1
     9     7     4    1
    10     4     5    1
    11     4     3    1
    12     3     1    1
    13     1     2    2
    14     1    16    1
    15    16    17    1
    16    17    18    1
    17    18    19   ar
    18    19    20   ar
    19    20    21   ar
    20    21    22    1
    21    21    23   ar
    22    23    26    1
    23    26    27    1
    24    23    24   ar
    25    24    18   ar
    26     5     6    1
    27    22    25    1
@<TRIPOS>MOLECULE
*****
 27 27 0 0 0
SMALL
GASTEIGER

@<TRIPOS>ATOM
      1 C          61.0405   88.8256   10.5009 C.2     1  UNL1        0.1534
      2 O          60.1254   88.2942   11.5640 O.2     1  UNL1       -0.2960
      3 C          60.5831   88.8736    9.0731 C.3     1  UNL1        0.0937
      4 C          59.8673   87.6990    8.4749 C.3     1  UNL1        0.1179
      5 O          58.6424   87.9147    7.6363 O.3     1  UNL1       -0.3840
      6 H          58.4511   88.8641    7.5816 H       1  UNL1        0.2104
      7 C          60.3764   86.3087    8.7152 C.3     1  UNL1        0.0297
      8 C          61.8304   85.9977    8.5174 C.3     1  UNL1        0.0025
      9 C          62.6450   85.4636    9.6581 C.3     1  UNL1        0.0001
     10 C          62.0207   85.2958   11.0117 C.3     1  UNL1        0.0000
     11 C          62.8461   84.8009   12.1622 C.3     1  UNL1        0.0000
     12 C          63.4866   83.4460   12.0977 C.3     1  UNL1        0.0000
     13 C          62.6418   82.2269   11.8744 C.3     1  UNL1        0.0000
     14 C          61.5238   81.2571   14.0098 C.3     1  UNL1        0.0000
     15 C          62.5625   81.1655   12.9314 C.3     1  UNL1        0.0000
     16 C          62.4129   89.3089   10.8655 C.3     1  UNL1        0.0693
     17 C          62.7323   90.7733   10.8074 C.3     1  UNL1        0.0342
     18 C          63.9273   91.3098   11.5383 C.ar    1  UNL1       -0.0185
     19 C          64.1219   90.9934   12.9916 C.ar    1  UNL1       -0.0009
     20 C          65.3168   91.5299   13.7225 C.ar    1  UNL1        0.0395
     21 C          66.3172   92.3829   13.0002 C.ar    1  UNL1        0.1677
     22 O          67.5121   92.9194   13.7311 O.3     1  UNL1       -0.5029
     23 C          66.1226   92.6992   11.5469 C.ar    1  UNL1        0.1718
     24 C          64.9276   92.1627   10.8160 C.ar    1  UNL1        0.0358
     25 H          67.6337   92.7218   14.6389 H       1  UNL1        0.2923
     26 O          67.1229   93.5522   10.8245 O.3     1  UNL1       -0.4684
     27 C          66.6956   94.8522   10.2103 C.3     1  UNL1        0.2526
@<TRIPOS>BOND
     1    14    15    1
     2    15    13    1
     3    13    12    1
     4    12    11    1
     5    11    10    1
     6    10     9    1
     7     9     8    1
     8     8     7    1
     9     7     4    1
    10     4     5    1
    11     4     3    1
    12     3     1    1
    13     1     2    2
    14     1    16    1
    15    16    17    1
    16    17    18    1
    17    18    19   ar
    18    19    20   ar
    19    20    21   ar
    20    21    22    1
    21    21    23   ar
    22    23    26    1
    23    26    27    1
    24    23    24   ar
    25    24    18   ar
    26     5     6    1
    27    22    25    1
@<TRIPOS>MOLECULE
*****
 27 27 0 0 0
SMALL
GASTEIGER

@<TRIPOS>ATOM
      1 C          61.6283   85.6813    8.3471 C.2     1  UNL1        0.1534
      2 O          61.4810   85.2086    6.9312 O.2     1  UNL1       -0.2960
      3 C          60.4566   86.2871    9.0613 C.3     1  UNL1        0.0937
      4 C          59.7001   87.4204    8.4341 C.3     1  UNL1        0.1179
      5 O          58.5543   87.1361    7.5086 O.3     1  UNL1       -0.3840
      6 H          58.4366   86.1769    7.4249 H       1  UNL1        0.2104
      7 C          60.0894   88.8380    8.7322 C.3     1  UNL1        0.0297
      8 C          60.2555   89.2869   10.1538 C.3     1  UNL1        0.0025
      9 C          61.2050   90.4008   10.4824 C.3     1  UNL1        0.0001
     10 C          62.6732   90.1217   10.6099 C.3     1  UNL1        0.0000
     11 C          63.3363   90.1928   11.9534 C.3     1  UNL1        0.0000
     12 C          63.4269   88.9654   12.8110 C.3     1  UNL1        0.0000
     13 C          64.2464   88.9869   14.0671 C.3     1  UNL1        0.0000
     14 C          63.1107   89.3375   16.3774 C.3     1  UNL1        0.0000
     15 C          63.8585   89.8900   15.2003 C.3     1  UNL1        0.0000
     16 C          62.9473   85.5481    9.0488 C.3     1  UNL1        0.0693
     17 C          63.4487   84.1933    9.4527 C.3     1  UNL1        0.0342
     18 C          63.2120   83.6907   10.8460 C.ar    1  UNL1       -0.0185
     19 C          63.1236   82.2162   11.1065 C.ar    1  UNL1       -0.0009
     20 C          62.8870   81.7135   12.4998 C.ar    1  UNL1        0.0395
     21 C          62.7386   82.6854   13.6326 C.ar    1  UNL1        0.1677
     22 O          62.5020   82.1828   15.0259 O.3     1  UNL1       -0.5029
     23 C          62.8270   84.1599   13.3721 C.ar    1  UNL1        0.1718
     24 C          63.0637   84.6626   11.9788 C.ar    1  UNL1        0.0358
     25 H          62.4468   81.2616   15.1886 H       1  UNL1        0.2923
     26 O          62.6787   85.1319   14.5050 O.3     1  UNL1       -0.4684
     27 C          63.8648   85.4803   15.3545 C.3     1  UNL1        0.2526
@<TRIPOS>BOND
     1    14    15    1
     2    15    13    1
     3    13    12    1
     4    12    11    1
     5    11    10    1
     6    10     9    1
     7     9     8    1
     8     8     7    1
     9     7     4    1
    10     4     5    1
    11     4     3    1
    12     3     1    1
    13     1     2    2
    14     1    16    1
    15    16    17    1
    16    17    18    1
    17    18    19   ar
    18    19    20   ar
    19    20    21   ar
    20    21    22    1
    21    21    23   ar
    22    23    26    1
    23    26    27    1
    24    23    24   ar
    25    24    18   ar
    26     5     6    1
    27    22    25    1
@<TRIPOS>MOLECULE
*****
 27 27 0 0 0
SMALL
GASTEIGER

@<TRIPOS>ATOM
      1 C          60.3431   88.9707    9.9051 C.2     1  UNL1        0.1534
      2 O          59.5876   88.3319   11.0325 O.2     1  UNL1       -0.2960
      3 C          60.0533   88.5733    8.4879 C.3     1  UNL1        0.0937
      4 C          59.7250   87.1466    8.1612 C.3     1  UNL1        0.1179
      5 O          58.2992   86.7369    7.9395 O.3     1  UNL1       -0.3840
      6 H          57.7210   87.5087    8.0438 H       1  UNL1        0.2104
      7 C          60.8226   86.1297    8.0561 C.3     1  UNL1        0.0297
      8 C          62.0002   86.1986    8.9826 C.3     1  UNL1        0.0025
      9 C          61.8464   85.8041   10.4217 C.3     1  UNL1        0.0001
     10 C          62.7337   84.7465   11.0083 C.3     1  UNL1        0.0000
     11 C          63.5467   83.8650   10.1072 C.3     1  UNL1        0.0000
     12 C          64.2845   82.6888   10.6749 C.3     1  UNL1        0.0000
     13 C          63.9489   82.1841   12.0470 C.3     1  UNL1        0.0000
     14 C          62.5320   80.3394   13.2043 C.3     1  UNL1        0.0000
     15 C          62.6209   81.5357   12.3036 C.3     1  UNL1        0.0000
     16 C          61.3884   90.0067   10.1947 C.3     1  UNL1        0.0693
     17 C          62.3631   89.7960   11.3151 C.3     1  UNL1        0.0342
     18 C          63.4536   90.7967   11.5588 C.ar    1  UNL1       -0.0185
     19 C          63.9459   91.6582   10.4339 C.ar    1  UNL1       -0.0009
     20 C          65.0364   92.6590   10.6776 C.ar    1  UNL1        0.0395
     21 C          65.6345   92.7982   12.0461 C.ar    1  UNL1        0.1677
     22 O          66.7250   93.7990   12.2897 O.3     1  UNL1       -0.5029
     23 C          65.1421   91.9367   13.1709 C.ar    1  UNL1        0.1718
     24 C          64.0517   90.9360   12.9273 C.ar    1  UNL1        0.0358
     25 H          67.0326   94.3371   11.5871 H       1  UNL1        0.2923
     26 O          65.7402   92.0759   14.5395 O.3     1  UNL1       -0.4684
     27 C          67.1223   91.5596   14.8101 C.3     1  UNL1        0.2526
@<TRIPOS>BOND
     1    14    15    1
     2    15    13    1
     3    13    12    1
     4    12    11    1
     5    11    10    1
     6    10     9    1
     7     9     8    1
     8     8     7    1
     9     7     4    1
    10     4     5    1
    11     4     3    1
    12     3     1    1
    13     1     2    2
    14     1    16    1
    15    16    17    1
    16    17    18    1
    17    18    19   ar
    18    19    20   ar
    19    20    21   ar
    20    21    22    1
    21    21    23   ar
    22    23    26    1
    23    26    27    1
    24    23    24   ar
    25    24    18   ar
    26     5     6    1
    27    22    25    1
@<TRIPOS>MOLECULE
*****
 27 27 0 0 0
SMALL
GASTEIGER

@<TRIPOS>ATOM
      1 C          59.7448   86.8389    8.6739 C.2     1  UNL1        0.1534
      2 O          58.4832   86.8009    7.8634 O.2     1  UNL1       -0.2960
      3 C          59.8015   87.6478    9.9359 C.3     1  UNL1        0.0937
      4 C          60.4172   89.0156    9.9229 C.3     1  UNL1        0.1179
      5 O          60.2754   89.8905    8.7127 O.3     1  UNL1       -0.3840
      6 H          59.7614   89.4242    8.0350 H       1  UNL1        0.2104
      7 C          61.1748   89.5084   11.1201 C.3     1  UNL1        0.0297
      8 C          62.6618   89.3262   11.1938 C.3     1  UNL1        0.0025
      9 C          63.3487   89.2971   12.5270 C.3     1  UNL1        0.0001
     10 C          63.8106   90.5757   13.1609 C.3     1  UNL1        0.0000
     11 C          64.6220   90.5374   14.4218 C.3     1  UNL1        0.0000
     12 C          65.9159   91.2918   14.5043 C.3     1  UNL1        0.0000
     13 C          66.1372   92.2827   15.6084 C.3     1  UNL1        0.0000
     14 C          68.6920   92.4810   16.0367 C.3     1  UNL1        0.0000
     15 C          67.3895   93.1078   15.6358 C.3     1  UNL1        0.0000
     16 C          60.9497   86.0679    8.2225 C.3     1  UNL1        0.0693
     17 C          62.2728   86.2824    8.8958 C.3     1  UNL1        0.0342
     18 C          62.7602   85.3022    9.9213 C.ar    1  UNL1       -0.0185
     19 C          63.5227   84.0841    9.4916 C.ar    1  UNL1       -0.0009
     20 C          64.0101   83.1038   10.5171 C.ar    1  UNL1        0.0395
     21 C          63.7349   83.3417   11.9723 C.ar    1  UNL1        0.1677
     22 O          64.2223   82.3615   12.9977 O.3     1  UNL1       -0.5029
     23 C          62.9724   84.5598   12.4020 C.ar    1  UNL1        0.1718
     24 C          62.4850   85.5401   11.3765 C.ar    1  UNL1        0.0358
     25 H          64.6986   81.6005   12.7293 H       1  UNL1        0.2923
     26 O          62.6972   84.7978   13.8572 O.3     1  UNL1       -0.4684
     27 C          63.7854   85.3131   14.7518 C.3     1  UNL1        0.2526
@<TRIPOS>BOND
     1    14    15    1
     2    15    13    1
     3    13    12    1
     4    12    11    1
     5    11    10    1
     6    10     9    1
     7     9     8    1
     8     8     7    1
     9     7     4    1
    10     4     5    1
    11     4     3    1
    12     3     1    1
    13     1     2    2
    14     1    16    1
    15    16    17    1
    16    17    18    1
    17    18    19   ar
    18    19    20   ar
    19    20    21   ar
    20    21    22    1
    21    21    23   ar
    22    23    26    1
    23    26    27    1
    24    23    24   ar
    25    24    18   ar
    26     5     6    1
    27    22    25    1
@<TRIPOS>MOLECULE
*****
 27 27 0 0 0
SMALL
GASTEIGER

@<TRIPOS>ATOM
      1 C          63.9949   87.0938   15.4463 C.2     1  UNL1        0.1534
      2 O          63.1490   87.4225   16.6405 O.2     1  UNL1       -0.2960
      3 C          64.4580   85.6851   15.2199 C.3     1  UNL1        0.0937
      4 C          63.4539   84.5839   15.0487 C.3     1  UNL1        0.1179
      5 O          62.0042   84.8392   15.3378 O.3     1  UNL1       -0.3840
      6 H          61.8884   85.7592   15.6225 H       1  UNL1        0.2104
      7 C          63.8993   83.2276   14.5884 C.3     1  UNL1        0.0297
      8 C          63.4413   82.6980   13.2618 C.3     1  UNL1        0.0025
      9 C          63.6897   83.4893   12.0120 C.3     1  UNL1        0.0001
     10 C          62.5881   84.3140   11.4151 C.3     1  UNL1        0.0000
     11 C          62.4688   85.7688   11.7604 C.3     1  UNL1        0.0000
     12 C          61.8583   86.7250   10.7790 C.3     1  UNL1        0.0000
     13 C          60.9744   86.2109    9.6816 C.3     1  UNL1        0.0000
     14 C          59.3288   86.6695    7.7241 C.3     1  UNL1        0.0000
     15 C          60.3101   87.1723    8.7412 C.3     1  UNL1        0.0000
     16 C          64.3778   88.1737   14.4782 C.3     1  UNL1        0.0693
     17 C          64.1676   89.6142   14.8399 C.3     1  UNL1        0.0342
     18 C          64.8684   90.6916   14.0666 C.ar    1  UNL1       -0.0185
     19 C          64.2774   91.2004   12.7852 C.ar    1  UNL1       -0.0009
     20 C          64.9781   92.2778   12.0118 C.ar    1  UNL1        0.0395
     21 C          66.2698   92.8465   12.5198 C.ar    1  UNL1        0.1677
     22 O          66.9705   93.9240   11.7464 O.3     1  UNL1       -0.5029
     23 C          66.8608   92.3378   13.8011 C.ar    1  UNL1        0.1718
     24 C          66.1601   91.2603   14.5745 C.ar    1  UNL1        0.0358
     25 H          66.6013   94.2418   10.9460 H       1  UNL1        0.2923
     26 O          68.1525   92.9064   14.3091 O.3     1  UNL1       -0.4684
     27 C          68.2086   93.5468   15.6644 C.3     1  UNL1        0.2526
@<TRIPOS>BOND
     1    14    15    1
     2    15    13    1
     3    13    12    1
     4    12    11    1
     5    11    10    1
     6    10     9    1
     7     9     8    1
     8     8     7    1
     9     7     4    1
    10     4     5    1
    11     4     3    1
    12     3     1    1
    13     1     2    2
    14     1    16    1
    15    16    17    1
    16    17    18    1
    17    18    19   ar
    18    19    20   ar
    19    20    21   ar
    20    21    22    1
    21    21    23   ar
    22    23    26    1
    23    26    27    1
    24    23    24   ar
    25    24    18   ar
    26     5     6    1
    27    22    25    1
@<TRIPOS>MOLECULE
*****
 27 27 0 0 0
SMALL
GASTEIGER

@<TRIPOS>ATOM
      1 C          61.5069   88.1861   10.0211 C.2     1  UNL1        0.1534
      2 O          60.0197   88.3762    9.9758 O.2     1  UNL1       -0.2960
      3 C          62.0889   86.8051    9.9555 C.3     1  UNL1        0.0937
      4 C          62.4750   86.0933   11.2181 C.3     1  UNL1        0.1179
      5 O          62.9010   86.8799   12.4223 O.3     1  UNL1       -0.3840
      6 H          62.8708   87.8274   12.2169 H       1  UNL1        0.2104
      7 C          62.4353   84.5950   11.2766 C.3     1  UNL1        0.0297
      8 C          63.5102   83.7896   10.6090 C.3     1  UNL1        0.0025
      9 C          63.9580   82.4909   11.2117 C.3     1  UNL1        0.0001
     10 C          62.9420   81.4880   11.6720 C.3     1  UNL1        0.0000
     11 C          62.9631   80.9952   13.0886 C.3     1  UNL1        0.0000
     12 C          62.1004   81.6531   14.1244 C.3     1  UNL1        0.0000
     13 C          62.4678   83.0065   14.6569 C.3     1  UNL1        0.0000
     14 C          64.6747   84.3203   14.2649 C.3     1  UNL1        0.0000
     15 C          63.8883   83.3026   15.0370 C.3     1  UNL1        0.0000
     16 C          62.4121   89.3770   10.1320 C.3     1  UNL1        0.0693
     17 C          62.3688   90.2405   11.3577 C.3     1  UNL1        0.0342
     18 C          63.5951   90.9864   11.7934 C.ar    1  UNL1       -0.0185
     19 C          64.1068   90.8345   13.1952 C.ar    1  UNL1       -0.0009
     20 C          65.3331   91.5804   13.6310 C.ar    1  UNL1        0.0395
     21 C          66.0478   92.4780   12.6649 C.ar    1  UNL1        0.1677
     22 O          67.2741   93.2239   13.1006 O.3     1  UNL1       -0.5029
     23 C          65.5361   92.6299   11.2631 C.ar    1  UNL1        0.1718
     24 C          64.3098   91.8840   10.8273 C.ar    1  UNL1        0.0358
     25 H          67.5937   93.1290   13.9763 H       1  UNL1        0.2923
     26 O          66.2508   93.5276   10.2969 O.3     1  UNL1       -0.4684
     27 C          67.5482   93.0892    9.6848 C.3     1  UNL1        0.2526
@<TRIPOS>BOND
     1    14    15    1
     2    15    13    1
     3    13    12    1
     4    12    11    1
     5    11    10    1
     6    10     9    1
     7     9     8    1
     8     8     7    1
     9     7     4    1
    10     4     5    1
    11     4     3    1
    12     3     1    1
    13     1     2    2
    14     1    16    1
    15    16    17    1
    16    17    18    1
    17    18    19   ar
    18    19    20   ar
    19    20    21   ar
    20    21    22    1
    21    21    23   ar
    22    23    26    1
    23    26    27    1
    24    23    24   ar
    25    24    18   ar
    26     5     6    1
    27    22    25    1
@<TRIPOS>MOLECULE
*****
 27 27 0 0 0
SMALL
GASTEIGER

@<TRIPOS>ATOM
      1 C          59.7116   87.0828    8.2548 C.2     1  UNL1        0.1534
      2 O          58.2994   86.8632    7.7994 O.2     1  UNL1       -0.2960
      3 C          60.1821   88.4648    8.5996 C.3     1  UNL1        0.0937
      4 C          60.3641   88.8586   10.0355 C.3     1  UNL1        0.1179
      5 O          59.8353   87.9769   11.1278 O.3     1  UNL1       -0.3840
      6 H          59.4072   87.1993   10.7369 H       1  UNL1        0.2104
      7 C          61.0747   90.1341   10.3791 C.3     1  UNL1        0.0297
      8 C          62.5653   90.1405   10.5469 C.3     1  UNL1        0.0025
      9 C          63.2208   91.1950   11.3886 C.3     1  UNL1        0.0001
     10 C          64.4763   91.8625   10.9111 C.3     1  UNL1        0.0000
     11 C          65.4191   92.4818   11.8998 C.3     1  UNL1        0.0000
     12 C          66.6054   93.2627   11.4173 C.3     1  UNL1        0.0000
     13 C          66.6200   93.8210   10.0251 C.3     1  UNL1        0.0000
     14 C          68.6178   92.2761    9.4150 C.3     1  UNL1        0.0000
     15 C          67.6811   93.3913    9.0558 C.3     1  UNL1        0.0000
     16 C          60.6533   85.9205    8.3655 C.3     1  UNL1        0.0693
     17 C          62.0761   86.1452    8.7838 C.3     1  UNL1        0.0342
     18 C          62.7051   85.2533    9.8129 C.ar    1  UNL1       -0.0185
     19 C          63.5654   84.1024    9.3827 C.ar    1  UNL1       -0.0009
     20 C          64.1944   83.2105   10.4118 C.ar    1  UNL1        0.0395
     21 C          63.9630   83.4695   11.8710 C.ar    1  UNL1        0.1677
     22 O          64.5919   82.5776   12.9000 O.3     1  UNL1       -0.5029
     23 C          63.1026   84.6204   12.3011 C.ar    1  UNL1        0.1718
     24 C          62.4737   85.5123   11.2721 C.ar    1  UNL1        0.0358
     25 H          65.1294   81.8586   12.6313 H       1  UNL1        0.2923
     26 O          62.8712   84.8795   13.7604 O.3     1  UNL1       -0.4684
     27 C          63.9574   85.4905   14.5951 C.3     1  UNL1        0.2526
@<TRIPOS>BOND
     1    14    15    1
     2    15    13    1
     3    13    12    1
     4    12    11    1
     5    11    10    1
     6    10     9    1
     7     9     8    1
     8     8     7    1
     9     7     4    1
    10     4     5    1
    11     4     3    1
    12     3     1    1
    13     1     2    2
    14     1    16    1
    15    16    17    1
    16    17    18    1
    17    18    19   ar
    18    19    20   ar
    19    20    21   ar
    20    21    22    1
    21    21    23   ar
    22    23    26    1
    23    26    27    1
    24    23    24   ar
    25    24    18   ar
    26     5     6    1
    27    22    25    1
@<TRIPOS>MOLECULE
*****
 27 27 0 0 0
SMALL
GASTEIGER

@<TRIPOS>ATOM
      1 C          63.9551   85.6455   15.2261 C.2     1  UNL1        0.1534
      2 O          62.7715   85.7176   16.1448 O.2     1  UNL1       -0.2960
      3 C          64.5405   84.3138   14.8602 C.3     1  UNL1        0.0937
      4 C          63.6390   83.1409   14.6119 C.3     1  UNL1        0.1179
      5 O          62.5372   82.8238   15.5791 O.3     1  UNL1       -0.3840
      6 H          62.5465   83.4696   16.3029 H       1  UNL1        0.2104
      7 C          63.8393   82.2852   13.3964 C.3     1  UNL1        0.0297
      8 C          63.0490   82.5553   12.1504 C.3     1  UNL1        0.0025
      9 C          63.1540   83.8880   11.4698 C.3     1  UNL1        0.0001
     10 C          62.1233   84.9463   11.7300 C.3     1  UNL1        0.0000
     11 C          62.5108   86.3949   11.6967 C.3     1  UNL1        0.0000
     12 C          62.0563   87.2671   10.5641 C.3     1  UNL1        0.0000
     13 C          61.7911   86.6670    9.2152 C.3     1  UNL1        0.0000
     14 C          62.8022   84.7368    7.8003 C.3     1  UNL1        0.0000
     15 C          62.9235   86.1020    8.4099 C.3     1  UNL1        0.0000
     16 C          64.5532   86.9051   14.6733 C.3     1  UNL1        0.0693
     17 C          63.9811   88.2379   15.0560 C.3     1  UNL1        0.0342
     18 C          64.2459   89.4413   14.2005 C.ar    1  UNL1       -0.0185
     19 C          63.3233   89.7719   13.0650 C.ar    1  UNL1       -0.0009
     20 C          63.5881   90.9753   12.2095 C.ar    1  UNL1        0.0395
     21 C          64.7754   91.8480   12.4897 C.ar    1  UNL1        0.1677
     22 O          65.0401   93.0514   11.6343 O.3     1  UNL1       -0.5029
     23 C          65.6979   91.5174   13.6253 C.ar    1  UNL1        0.1718
     24 C          65.4331   90.3141   14.4807 C.ar    1  UNL1        0.0358
     25 H          64.4638   93.2579   10.9249 H       1  UNL1        0.2923
     26 O          66.8853   92.3903   13.9055 O.3     1  UNL1       -0.4684
     27 C          66.6859   93.7864   14.4162 C.3     1  UNL1        0.2526
@<TRIPOS>BOND
     1    14    15    1
     2    15    13    1
     3    13    12    1
     4    12    11    1
     5    11    10    1
     6    10     9    1
     7     9     8    1
     8     8     7    1
     9     7     4    1
    10     4     5    1
    11     4     3    1
    12     3     1    1
    13     1     2    2
    14     1    16    1
    15    16    17    1
    16    17    18    1
    17    18    19   ar
    18    19    20   ar
    19    20    21   ar
    20    21    22    1
    21    21    23   ar
    22    23    26    1
    23    26    27    1
    24    23    24   ar
    25    24    18   ar
    26     5     6    1
    27    22    25    1
