@<TRIPOS>MOLECULE
*****
 26 29 0 0 0
SMALL
GASTEIGER

@<TRIPOS>ATOM
      1 C          60.8516   90.8153   11.3631 C.3     1  UNL1        0.0342
      2 C          61.3102   89.3877   11.3217 C.ar    1  UNL1        0.0135
      3 C          60.4972   88.3596   10.5923 C.ar    1  UNL1        0.0960
      4 N          60.9558   86.9321   10.5510 N.ar    1  UNL1       -0.2440
      5 C          62.2274   86.5326   11.2390 C.ar    1  UNL1        0.0849
      6 C          63.0404   87.5607   11.9683 C.ar    1  UNL1        0.0365
      7 C          62.5819   88.9883   12.0097 C.ar    1  UNL1        0.0673
      8 N          63.3949   90.0164   12.7391 N.ar    1  UNL1       -0.2590
      9 C          63.5873   90.0969   14.2245 C.ar    1  UNL1        0.3355
     10 O          63.0003   89.1634   15.2414 O.2     1  UNL1       -0.2459
     11 N          64.4696   91.2748   14.5145 N.ar    1  UNL1       -0.2762
     12 C          64.9199   91.7260   15.8723 C.3     1  UNL1        0.1352
     13 C          64.8226   91.9222   13.2083 C.ar    1  UNL1        0.0993
     14 C          65.6629   93.1195   12.8763 C.ar    1  UNL1        0.1176
     15 N          65.8391   93.5390   11.4470 N.ar    1  UNL1       -0.2407
     16 C          65.1750   92.7613   10.3497 C.ar    1  UNL1        0.1005
     17 C          64.3346   91.5640   10.6817 C.ar    1  UNL1        0.0398
     18 C          64.1584   91.1445   12.1110 C.ar    1  UNL1        0.0871
     19 C          62.6860   85.1051   11.1976 C.ar    1  UNL1        0.0460
     20 C          62.5320   84.2324   12.4078 C.ar    1  UNL1        0.0151
     21 C          62.9906   82.8048   12.3664 C.ar    1  UNL1        0.0579
     22 CL         62.8365   81.9322   13.5768 Cl      1  UNL1       -0.0822
     23 C          63.6033   82.2499   11.1148 C.ar    1  UNL1        0.0137
     24 C          63.7574   83.1225    9.9046 C.ar    1  UNL1        0.0306
     25 C          63.2988   84.5501    9.9459 C.ar    1  UNL1        0.1416
     26 F          63.4529   85.4227    8.7357 F       1  UNL1       -0.2041
@<TRIPOS>BOND
     1     1     2    1
     2     2     3   ar
     3     3     4   ar
     4     4     5   ar
     5     5    19    1
     6    19    20   ar
     7    20    21   ar
     8    21    22    1
     9    21    23   ar
    10    23    24   ar
    11    24    25   ar
    12    25    26    1
    13     5     6   ar
    14     6     7   ar
    15     7     8    1
    16     8     9   ar
    17     9    10    2
    18     9    11   ar
    19    11    12    1
    20    11    13   ar
    21    13    14   ar
    22    14    15   ar
    23    15    16   ar
    24    16    17   ar
    25    17    18   ar
    26     7     2   ar
    27    18     8   ar
    28    25    19   ar
    29    18    13   ar
@<TRIPOS>MOLECULE
*****
 26 29 0 0 0
SMALL
GASTEIGER

@<TRIPOS>ATOM
      1 C          63.3932   90.6982   16.5418 C.3     1  UNL1        0.0342
      2 C          63.4667   89.2642   16.1077 C.ar    1  UNL1        0.0135
      3 C          63.0892   88.1711   17.0631 C.ar    1  UNL1        0.0960
      4 N          63.1626   86.7372   16.6290 N.ar    1  UNL1       -0.2440
      5 C          63.6135   86.3964   15.2396 C.ar    1  UNL1        0.0849
      6 C          63.9910   87.4895   14.2842 C.ar    1  UNL1        0.0365
      7 C          63.9176   88.9234   14.7182 C.ar    1  UNL1        0.0673
      8 N          64.2951   90.0165   13.7629 N.ar    1  UNL1       -0.2590
      9 C          63.6255   90.3136   12.4540 C.ar    1  UNL1        0.3355
     10 O          62.4609   89.5699   11.8705 O.2     1  UNL1       -0.2459
     11 N          64.3251   91.4851   11.8309 N.ar    1  UNL1       -0.2762
     12 C          63.9828   92.1186   10.5150 C.3     1  UNL1        0.1352
     13 C          65.4270   91.9120   12.7548 C.ar    1  UNL1        0.0993
     14 C          66.4449   93.0099   12.6631 C.ar    1  UNL1        0.1176
     15 N          67.4442   93.2001   13.7654 N.ar    1  UNL1       -0.2407
     16 C          67.4257   92.2924   14.9594 C.ar    1  UNL1        0.1005
     17 C          66.4078   91.1945   15.0511 C.ar    1  UNL1        0.0398
     18 C          65.4085   91.0043   13.9489 C.ar    1  UNL1        0.0871
     19 C          63.6869   84.9625   14.8055 C.ar    1  UNL1        0.0460
     20 C          62.4490   84.1155   14.8022 C.ar    1  UNL1        0.0151
     21 C          62.5224   82.6815   14.3681 C.ar    1  UNL1        0.0579
     22 CL         61.2844   81.8345   14.3648 Cl      1  UNL1       -0.0822
     23 C          63.8339   82.0945   13.9373 C.ar    1  UNL1        0.0137
     24 C          65.0718   82.9415   13.9406 C.ar    1  UNL1        0.0306
     25 C          64.9984   84.3755   14.3747 C.ar    1  UNL1        0.1416
     26 F          66.2364   85.2224   14.3779 F       1  UNL1       -0.2041
@<TRIPOS>BOND
     1     1     2    1
     2     2     3   ar
     3     3     4   ar
     4     4     5   ar
     5     5    19    1
     6    19    20   ar
     7    20    21   ar
     8    21    22    1
     9    21    23   ar
    10    23    24   ar
    11    24    25   ar
    12    25    26    1
    13     5     6   ar
    14     6     7   ar
    15     7     8    1
    16     8     9   ar
    17     9    10    2
    18     9    11   ar
    19    11    12    1
    20    11    13   ar
    21    13    14   ar
    22    14    15   ar
    23    15    16   ar
    24    16    17   ar
    25    17    18   ar
    26     7     2   ar
    27    18     8   ar
    28    25    19   ar
    29    18    13   ar
@<TRIPOS>MOLECULE
*****
 26 29 0 0 0
SMALL
GASTEIGER

@<TRIPOS>ATOM
      1 C          60.4354   90.6113   11.1558 C.3     1  UNL1        0.0342
      2 C          60.9909   89.2181   11.1765 C.ar    1  UNL1        0.0135
      3 C          60.1420   88.0654   10.7284 C.ar    1  UNL1        0.0960
      4 N          60.6975   86.6723   10.7492 N.ar    1  UNL1       -0.2440
      5 C          62.1019   86.4317   11.2180 C.ar    1  UNL1        0.0849
      6 C          62.9508   87.5844   11.6662 C.ar    1  UNL1        0.0365
      7 C          62.3953   88.9776   11.6454 C.ar    1  UNL1        0.0673
      8 N          63.2442   90.1302   12.0935 N.ar    1  UNL1       -0.2590
      9 C          63.8826   91.1539   11.2022 C.ar    1  UNL1        0.3355
     10 O          63.7842   91.2048    9.7063 O.2     1  UNL1       -0.2459
     11 N          64.6366   92.1179   12.0695 N.ar    1  UNL1       -0.2762
     12 C          65.4247   93.3020   11.5931 C.3     1  UNL1        0.1352
     13 C          64.4643   91.6900   13.4968 C.ar    1  UNL1        0.0993
     14 C          64.9797   92.2602   14.7848 C.ar    1  UNL1        0.1176
     15 N          64.6346   91.6020   16.0877 N.ar    1  UNL1       -0.2407
     16 C          63.7740   90.3735   16.1026 C.ar    1  UNL1        0.1005
     17 C          63.2586   89.8032   14.8145 C.ar    1  UNL1        0.0398
     18 C          63.6037   90.4615   13.5117 C.ar    1  UNL1        0.0871
     19 C          62.6574   85.0386   11.2388 C.ar    1  UNL1        0.0460
     20 C          62.5570   84.2095   12.4848 C.ar    1  UNL1        0.0151
     21 C          63.1125   82.8164   12.5055 C.ar    1  UNL1        0.0579
     22 CL         63.0121   81.9873   13.7517 Cl      1  UNL1       -0.0822
     23 C          63.7685   82.2522   11.2802 C.ar    1  UNL1        0.0137
     24 C          63.8689   83.0812   10.0342 C.ar    1  UNL1        0.0306
     25 C          63.3134   84.4744   10.0135 C.ar    1  UNL1        0.1416
     26 F          63.4139   85.3034    8.7674 F       1  UNL1       -0.2041
@<TRIPOS>BOND
     1     1     2    1
     2     2     3   ar
     3     3     4   ar
     4     4     5   ar
     5     5    19    1
     6    19    20   ar
     7    20    21   ar
     8    21    22    1
     9    21    23   ar
    10    23    24   ar
    11    24    25   ar
    12    25    26    1
    13     5     6   ar
    14     6     7   ar
    15     7     8    1
    16     8     9   ar
    17     9    10    2
    18     9    11   ar
    19    11    12    1
    20    11    13   ar
    21    13    14   ar
    22    14    15   ar
    23    15    16   ar
    24    16    17   ar
    25    17    18   ar
    26     7     2   ar
    27    18     8   ar
    28    25    19   ar
    29    18    13   ar
@<TRIPOS>MOLECULE
*****
 26 29 0 0 0
SMALL
GASTEIGER

@<TRIPOS>ATOM
      1 C          63.4182   90.6724   16.6013 C.3     1  UNL1        0.0342
      2 C          63.4894   89.2430   16.1522 C.ar    1  UNL1        0.0135
      3 C          63.0830   88.1422   17.0866 C.ar    1  UNL1        0.0960
      4 N          63.1543   86.7128   16.6375 N.ar    1  UNL1       -0.2440
      5 C          63.6320   86.3842   15.2541 C.ar    1  UNL1        0.0849
      6 C          64.0384   87.4850   14.3198 C.ar    1  UNL1        0.0365
      7 C          63.9672   88.9144   14.7688 C.ar    1  UNL1        0.0673
      8 N          64.3736   90.0153   13.8344 N.ar    1  UNL1       -0.2590
      9 C          65.4854   90.9968   14.0590 C.ar    1  UNL1        0.3355
     10 O          66.3860   91.0499   15.2574 O.2     1  UNL1       -0.2459
     11 N          65.5384   91.9160   12.8748 N.ar    1  UNL1       -0.2762
     12 C          66.5014   93.0496   12.6811 C.3     1  UNL1        0.1352
     13 C          64.4594   91.5025   11.9184 C.ar    1  UNL1        0.0993
     14 C          64.0395   92.0439   10.5840 C.ar    1  UNL1        0.1176
     15 N          62.8996   91.4106    9.8428 N.ar    1  UNL1       -0.2407
     16 C          62.1797   90.2358   10.4358 C.ar    1  UNL1        0.1005
     17 C          62.5996   89.6944   11.7702 C.ar    1  UNL1        0.0398
     18 C          63.7395   90.3278   12.5114 C.ar    1  UNL1        0.0871
     19 C          63.7033   84.9548   14.8050 C.ar    1  UNL1        0.0460
     20 C          62.4649   84.1085   14.7970 C.ar    1  UNL1        0.0151
     21 C          62.5362   82.6790   14.3479 C.ar    1  UNL1        0.0579
     22 CL         61.2977   81.8327   14.3399 Cl      1  UNL1       -0.0822
     23 C          63.8460   82.0959   13.9069 C.ar    1  UNL1        0.0137
     24 C          65.0843   82.9422   13.9149 C.ar    1  UNL1        0.0306
     25 C          65.0130   84.3716   14.3640 C.ar    1  UNL1        0.1416
     26 F          66.2515   85.2179   14.3720 F       1  UNL1       -0.2041
@<TRIPOS>BOND
     1     1     2    1
     2     2     3   ar
     3     3     4   ar
     4     4     5   ar
     5     5    19    1
     6    19    20   ar
     7    20    21   ar
     8    21    22    1
     9    21    23   ar
    10    23    24   ar
    11    24    25   ar
    12    25    26    1
    13     5     6   ar
    14     6     7   ar
    15     7     8    1
    16     8     9   ar
    17     9    10    2
    18     9    11   ar
    19    11    12    1
    20    11    13   ar
    21    13    14   ar
    22    14    15   ar
    23    15    16   ar
    24    16    17   ar
    25    17    18   ar
    26     7     2   ar
    27    18     8   ar
    28    25    19   ar
    29    18    13   ar
@<TRIPOS>MOLECULE
*****
 26 29 0 0 0
SMALL
GASTEIGER

@<TRIPOS>ATOM
      1 C          62.3164   91.0394   11.3048 C.3     1  UNL1        0.0342
      2 C          62.5706   89.6186   11.7132 C.ar    1  UNL1        0.0135
      3 C          61.8562   88.4987   11.0165 C.ar    1  UNL1        0.0960
      4 N          62.1104   87.0779   11.4249 N.ar    1  UNL1       -0.2440
      5 C          63.0790   86.7771   12.5299 C.ar    1  UNL1        0.0849
      6 C          63.7935   87.8970   13.2266 C.ar    1  UNL1        0.0365
      7 C          63.5393   89.3177   12.8183 C.ar    1  UNL1        0.0673
      8 N          64.2537   90.4376   13.5150 N.ar    1  UNL1       -0.2590
      9 C          64.2894   90.6746   14.9958 C.ar    1  UNL1        0.3355
     10 O          63.6170   89.8333   16.0398 O.2     1  UNL1       -0.2459
     11 N          65.1156   91.9006   15.2491 N.ar    1  UNL1       -0.2762
     12 C          65.4145   92.5006   16.5910 C.3     1  UNL1        0.1352
     13 C          65.5906   92.4214   13.9250 C.ar    1  UNL1        0.0993
     14 C          66.4392   93.6021   13.5568 C.ar    1  UNL1        0.1176
     15 N          66.7552   93.8786   12.1168 N.ar    1  UNL1       -0.2407
     16 C          66.2225   92.9744   11.0450 C.ar    1  UNL1        0.1005
     17 C          65.3738   91.7937   11.4133 C.ar    1  UNL1        0.0398
     18 C          65.0579   91.5172   12.8533 C.ar    1  UNL1        0.0871
     19 C          63.3333   85.3563   12.9383 C.ar    1  UNL1        0.0460
     20 C          62.9715   84.2334   12.0120 C.ar    1  UNL1        0.0151
     21 C          63.2257   82.8127   12.4203 C.ar    1  UNL1        0.0579
     22 CL         62.8638   81.6897   11.4939 Cl      1  UNL1       -0.0822
     23 C          63.8417   82.5147   13.7551 C.ar    1  UNL1        0.0137
     24 C          64.2035   83.6376   14.6815 C.ar    1  UNL1        0.0306
     25 C          63.9493   85.0584   14.2731 C.ar    1  UNL1        0.1416
     26 F          64.3112   86.1812   15.1996 F       1  UNL1       -0.2041
@<TRIPOS>BOND
     1     1     2    1
     2     2     3   ar
     3     3     4   ar
     4     4     5   ar
     5     5    19    1
     6    19    20   ar
     7    20    21   ar
     8    21    22    1
     9    21    23   ar
    10    23    24   ar
    11    24    25   ar
    12    25    26    1
    13     5     6   ar
    14     6     7   ar
    15     7     8    1
    16     8     9   ar
    17     9    10    2
    18     9    11   ar
    19    11    12    1
    20    11    13   ar
    21    13    14   ar
    22    14    15   ar
    23    15    16   ar
    24    16    17   ar
    25    17    18   ar
    26     7     2   ar
    27    18     8   ar
    28    25    19   ar
    29    18    13   ar
@<TRIPOS>MOLECULE
*****
 26 29 0 0 0
SMALL
GASTEIGER

@<TRIPOS>ATOM
      1 C          63.5050   89.8619   15.2260 C.3     1  UNL1        0.0342
      2 C          64.1922   90.7158   14.2021 C.ar    1  UNL1        0.0135
      3 C          64.9705   91.9235   14.6330 C.ar    1  UNL1        0.0960
      4 N          65.6578   92.7775   13.6090 N.ar    1  UNL1       -0.2440
      5 C          65.5666   92.4238   12.1542 C.ar    1  UNL1        0.0849
      6 C          64.7883   91.2161   11.7233 C.ar    1  UNL1        0.0365
      7 C          64.1011   90.3621   12.7471 C.ar    1  UNL1        0.0673
      8 N          63.3227   89.1544   12.3162 N.ar    1  UNL1       -0.2590
      9 C          63.5076   87.7571   12.8293 C.ar    1  UNL1        0.3355
     10 O          64.5034   87.3221   13.8634 O.2     1  UNL1       -0.2459
     11 N          62.5220   86.8711   12.1268 N.ar    1  UNL1       -0.2762
     12 C          62.3590   85.3946   12.3349 C.3     1  UNL1        0.1352
     13 C          61.7279   87.7209   11.1795 C.ar    1  UNL1        0.0993
     14 C          60.6182   87.3920   10.2255 C.ar    1  UNL1        0.1176
     15 N          60.0033   88.4743    9.3885 N.ar    1  UNL1       -0.2407
     16 C          60.4982   89.8855    9.5056 C.ar    1  UNL1        0.1005
     17 C          61.6079   90.2144   10.4597 C.ar    1  UNL1        0.0398
     18 C          62.2228   89.1321   11.2966 C.ar    1  UNL1        0.0871
     19 C          66.2538   93.2777   11.1303 C.ar    1  UNL1        0.0460
     20 C          65.7131   94.6380   10.8030 C.ar    1  UNL1        0.0151
     21 C          66.4003   95.4920    9.7791 C.ar    1  UNL1        0.0579
     22 CL         65.8594   96.8523    9.4519 Cl      1  UNL1       -0.0822
     23 C          67.6284   94.9856    9.0823 C.ar    1  UNL1        0.0137
     24 C          68.1691   93.6254    9.4096 C.ar    1  UNL1        0.0306
     25 C          67.4819   92.7714   10.4335 C.ar    1  UNL1        0.1416
     26 F          68.0228   91.4111   10.7607 F       1  UNL1       -0.2041
@<TRIPOS>BOND
     1     1     2    1
     2     2     3   ar
     3     3     4   ar
     4     4     5   ar
     5     5    19    1
     6    19    20   ar
     7    20    21   ar
     8    21    22    1
     9    21    23   ar
    10    23    24   ar
    11    24    25   ar
    12    25    26    1
    13     5     6   ar
    14     6     7   ar
    15     7     8    1
    16     8     9   ar
    17     9    10    2
    18     9    11   ar
    19    11    12    1
    20    11    13   ar
    21    13    14   ar
    22    14    15   ar
    23    15    16   ar
    24    16    17   ar
    25    17    18   ar
    26     7     2   ar
    27    18     8   ar
    28    25    19   ar
    29    18    13   ar
@<TRIPOS>MOLECULE
*****
 26 29 0 0 0
SMALL
GASTEIGER

@<TRIPOS>ATOM
      1 C          63.1925   89.8807   14.8536 C.3     1  UNL1        0.0342
      2 C          63.9444   90.7302   13.8724 C.ar    1  UNL1        0.0135
      3 C          64.7866   91.8719   14.3596 C.ar    1  UNL1        0.0960
      4 N          65.5385   92.7214   13.3784 N.ar    1  UNL1       -0.2440
      5 C          65.4483   92.4293   11.9099 C.ar    1  UNL1        0.0849
      6 C          64.6061   91.2876   11.4226 C.ar    1  UNL1        0.0365
      7 C          63.8542   90.4381   12.4038 C.ar    1  UNL1        0.0673
      8 N          63.0121   89.2964   11.9166 N.ar    1  UNL1       -0.2590
      9 C          61.9433   89.3743   10.8670 C.ar    1  UNL1        0.3355
     10 O          61.5289   90.6076   10.1204 O.2     1  UNL1       -0.2459
     11 N          61.3616   88.0024   10.6952 N.ar    1  UNL1       -0.2762
     12 C          60.2634   87.6229    9.7465 C.3     1  UNL1        0.1352
     13 C          62.0708   87.0767   11.6385 C.ar    1  UNL1        0.0993
     14 C          61.9196   85.6088   11.9076 C.ar    1  UNL1        0.1176
     15 N          62.7885   84.9407   12.9316 N.ar    1  UNL1       -0.2407
     16 C          63.8086   85.7404   13.6865 C.ar    1  UNL1        0.1005
     17 C          63.9598   87.2083   13.4174 C.ar    1  UNL1        0.0398
     18 C          63.0909   87.8764   12.3934 C.ar    1  UNL1        0.0871
     19 C          66.2002   93.2789   10.9286 C.ar    1  UNL1        0.0460
     20 C          65.6880   94.6424   10.5701 C.ar    1  UNL1        0.0151
     21 C          66.4400   95.4919    9.5889 C.ar    1  UNL1        0.0579
     22 CL         65.9277   96.8555    9.2304 Cl      1  UNL1       -0.0822
     23 C          67.7041   94.9780    8.9661 C.ar    1  UNL1        0.0137
     24 C          68.2162   93.6145    9.3246 C.ar    1  UNL1        0.0306
     25 C          67.4643   92.7649   10.3058 C.ar    1  UNL1        0.1416
     26 F          67.9765   91.4014   10.6643 F       1  UNL1       -0.2041
@<TRIPOS>BOND
     1     1     2    1
     2     2     3   ar
     3     3     4   ar
     4     4     5   ar
     5     5    19    1
     6    19    20   ar
     7    20    21   ar
     8    21    22    1
     9    21    23   ar
    10    23    24   ar
    11    24    25   ar
    12    25    26    1
    13     5     6   ar
    14     6     7   ar
    15     7     8    1
    16     8     9   ar
    17     9    10    2
    18     9    11   ar
    19    11    12    1
    20    11    13   ar
    21    13    14   ar
    22    14    15   ar
    23    15    16   ar
    24    16    17   ar
    25    17    18   ar
    26     7     2   ar
    27    18     8   ar
    28    25    19   ar
    29    18    13   ar
@<TRIPOS>MOLECULE
*****
 26 29 0 0 0
SMALL
GASTEIGER

@<TRIPOS>ATOM
      1 C          64.8396   87.4019   14.9593 C.3     1  UNL1        0.0342
      2 C          63.9701   87.5969   13.7527 C.ar    1  UNL1        0.0135
      3 C          63.4215   86.4064   13.0234 C.ar    1  UNL1        0.0960
      4 N          62.5520   86.6014   11.8168 N.ar    1  UNL1       -0.2440
      5 C          62.2311   87.9867   11.3394 C.ar    1  UNL1        0.0849
      6 C          62.7798   89.1771   12.0687 C.ar    1  UNL1        0.0365
      7 C          63.6493   88.9823   13.2753 C.ar    1  UNL1        0.0673
      8 N          64.1979   90.1727   14.0046 N.ar    1  UNL1       -0.2590
      9 C          63.9519   90.5152   15.4441 C.ar    1  UNL1        0.3355
     10 O          63.1141   89.7273   16.4071 O.2     1  UNL1       -0.2459
     11 N          64.6909   91.7838   15.7515 N.ar    1  UNL1       -0.2762
     12 C          64.7218   92.4873   17.0760 C.3     1  UNL1        0.1352
     13 C          65.3936   92.2254   14.5021 C.ar    1  UNL1        0.0993
     14 C          66.2715   93.4055   14.2079 C.ar    1  UNL1        0.1176
     15 N          66.8448   93.5899   12.8342 N.ar    1  UNL1       -0.2407
     16 C          66.5401   92.5942   11.7545 C.ar    1  UNL1        0.1005
     17 C          65.6622   91.4141   12.0486 C.ar    1  UNL1        0.0398
     18 C          65.0889   91.2297   13.4224 C.ar    1  UNL1        0.0871
     19 C          61.3617   88.1816   10.1328 C.ar    1  UNL1        0.0460
     20 C          60.8774   86.9925    9.3573 C.ar    1  UNL1        0.0151
     21 C          60.0079   87.1874    8.1506 C.ar    1  UNL1        0.0579
     22 CL         59.5237   85.9982    7.3751 Cl      1  UNL1       -0.0822
     23 C          59.6226   88.5715    7.7195 C.ar    1  UNL1        0.0137
     24 C          60.1069   89.7606    8.4950 C.ar    1  UNL1        0.0306
     25 C          60.9764   89.5657    9.7017 C.ar    1  UNL1        0.1416
     26 F          61.4606   90.7549   10.4772 F       1  UNL1       -0.2041
@<TRIPOS>BOND
     1     1     2    1
     2     2     3   ar
     3     3     4   ar
     4     4     5   ar
     5     5    19    1
     6    19    20   ar
     7    20    21   ar
     8    21    22    1
     9    21    23   ar
    10    23    24   ar
    11    24    25   ar
    12    25    26    1
    13     5     6   ar
    14     6     7   ar
    15     7     8    1
    16     8     9   ar
    17     9    10    2
    18     9    11   ar
    19    11    12    1
    20    11    13   ar
    21    13    14   ar
    22    14    15   ar
    23    15    16   ar
    24    16    17   ar
    25    17    18   ar
    26     7     2   ar
    27    18     8   ar
    28    25    19   ar
    29    18    13   ar
@<TRIPOS>MOLECULE
*****
 26 29 0 0 0
SMALL
GASTEIGER

@<TRIPOS>ATOM
      1 C          63.6161   90.9247   16.5319 C.3     1  UNL1        0.0342
      2 C          63.6152   89.5644   15.8999 C.ar    1  UNL1        0.0135
      3 C          63.0564   88.3903   16.6477 C.ar    1  UNL1        0.0960
      4 N          63.0555   87.0299   16.0157 N.ar    1  UNL1       -0.2440
      5 C          63.6135   86.8437   14.6359 C.ar    1  UNL1        0.0849
      6 C          64.1724   88.0178   13.8881 C.ar    1  UNL1        0.0365
      7 C          64.1733   89.3781   14.5200 C.ar    1  UNL1        0.0673
      8 N          64.7321   90.5522   13.7722 N.ar    1  UNL1       -0.2590
      9 C          64.2067   91.1064   12.4812 C.ar    1  UNL1        0.3355
     10 O          63.0302   90.5839   11.7113 O.2     1  UNL1       -0.2459
     11 N          65.0644   92.2749   12.0953 N.ar    1  UNL1       -0.2762
     12 C          64.8962   93.1261   10.8717 C.3     1  UNL1        0.1352
     13 C          66.1199   92.4428   13.1478 C.ar    1  UNL1        0.0993
     14 C          67.2415   93.4277   13.2963 C.ar    1  UNL1        0.1176
     15 N          68.1577   93.3478   14.4812 N.ar    1  UNL1       -0.2407
     16 C          67.9524   92.2830   15.5176 C.ar    1  UNL1        0.1005
     17 C          66.8308   91.2982   15.3691 C.ar    1  UNL1        0.0398
     18 C          65.9146   91.3781   14.1842 C.ar    1  UNL1        0.0871
     19 C          63.6126   85.4834   14.0039 C.ar    1  UNL1        0.0460
     20 C          64.0319   84.2849   14.8026 C.ar    1  UNL1        0.0151
     21 C          64.0310   82.9246   14.1706 C.ar    1  UNL1        0.0579
     22 CL         64.4503   81.7262   14.9694 Cl      1  UNL1       -0.0822
     23 C          63.6109   82.7626   12.7397 C.ar    1  UNL1        0.0137
     24 C          63.1916   83.9610   11.9410 C.ar    1  UNL1        0.0306
     25 C          63.1925   85.3214   12.5730 C.ar    1  UNL1        0.1416
     26 F          62.7732   86.5197   11.7742 F       1  UNL1       -0.2041
@<TRIPOS>BOND
     1     1     2    1
     2     2     3   ar
     3     3     4   ar
     4     4     5   ar
     5     5    19    1
     6    19    20   ar
     7    20    21   ar
     8    21    22    1
     9    21    23   ar
    10    23    24   ar
    11    24    25   ar
    12    25    26    1
    13     5     6   ar
    14     6     7   ar
    15     7     8    1
    16     8     9   ar
    17     9    10    2
    18     9    11   ar
    19    11    12    1
    20    11    13   ar
    21    13    14   ar
    22    14    15   ar
    23    15    16   ar
    24    16    17   ar
    25    17    18   ar
    26     7     2   ar
    27    18     8   ar
    28    25    19   ar
    29    18    13   ar
