@<TRIPOS>MOLECULE
*****
 21 22 0 0 0
SMALL
GASTEIGER

@<TRIPOS>ATOM
      1 C          64.1252   91.0829   13.1696 C.2     1  UNL1        0.2254
      2 O          62.9276   90.7611   12.3257 O.2     1  UNL1       -0.2749
      3 N          65.1382   92.0777   12.6857 N.am    1  UNL1       -0.2756
      4 C          66.3359   92.3994   13.5297 C.3     1  UNL1        0.0927
      5 C          66.4775   93.5783   14.4463 C.3     1  UNL1        0.0383
      6 C          67.8314   93.5062   15.0883 C.3     1  UNL1        0.0704
      7 N          68.5264   92.2828   14.5683 N.3     1  UNL1       -0.2960
      8 C          67.6021   91.5988   13.6051 C.3     1  UNL1        0.0887
      9 H          68.7469   91.6551   15.3415 H       1  UNL1        0.1233
     10 C          64.1724   91.2005   15.7646 C.3     1  UNL1        0.0096
     11 C          64.3099   90.4098   14.4974 C.3     1  UNL1        0.0767
     12 C          64.6319   88.9460   14.5578 C.3     1  UNL1        0.0096
     13 C          64.9537   92.7508   11.3580 C.3     1  UNL1        0.1210
     14 C          66.1505   93.1518   10.5476 C.ar    1  UNL1        0.0091
     15 C          67.1876   92.1302   10.1855 C.ar    1  UNL1       -0.0017
     16 C          68.3844   92.5312    9.3751 C.ar    1  UNL1        0.0007
     17 C          68.5442   93.9536    8.9267 C.ar    1  UNL1        0.0122
     18 C          67.5071   94.9751    9.2887 C.ar    1  UNL1        0.0679
     19 CL         67.6670   96.3976    8.8403 Cl      1  UNL1       -0.0814
     20 C          66.3103   94.5742   10.0992 C.ar    1  UNL1        0.0658
     21 CL         65.2733   95.5957   10.4612 Cl      1  UNL1       -0.0816
@<TRIPOS>BOND
     1    10    11    1
     2    11    12    1
     3    11     1    1
     4     1     2    2
     5     1     3   am
     6     3    13    1
     7    13    14    1
     8    14    15   ar
     9    15    16   ar
    10    16    17   ar
    11    17    18   ar
    12    18    19    1
    13    18    20   ar
    14    20    21    1
    15     4     3    1
    16     4     5    1
    17     5     6    1
    18     6     7    1
    19     7     8    1
    20    20    14   ar
    21     8     4    1
    22     7     9    1
@<TRIPOS>MOLECULE
*****
 21 22 0 0 0
SMALL
GASTEIGER

@<TRIPOS>ATOM
      1 C          65.2519   92.3986   11.2440 C.2     1  UNL1        0.2254
      2 O          64.1294   92.1099   10.2918 O.2     1  UNL1       -0.2749
      3 N          65.1289   92.0113   12.6879 N.am    1  UNL1       -0.2756
      4 C          66.2515   92.3000   13.6401 C.3     1  UNL1        0.0927
      5 C          66.4821   93.5929   14.3649 C.3     1  UNL1        0.0383
      6 C          67.7137   93.4386   15.2074 C.3     1  UNL1        0.0704
      7 N          68.2440   92.0503   15.0032 N.3     1  UNL1       -0.2960
      8 C          67.3403   91.3467   14.0345 C.3     1  UNL1        0.0887
      9 H          68.2555   91.5499   15.8919 H       1  UNL1        0.1233
     10 C          67.6562   92.2533   10.2702 C.3     1  UNL1        0.0096
     11 C          66.4974   93.0747   10.7523 C.3     1  UNL1        0.0767
     12 C          66.5840   94.5721   10.7426 C.3     1  UNL1        0.0096
     13 C          63.8835   91.3352   13.1796 C.3     1  UNL1        0.1210
     14 C          63.8545   89.8445   13.3444 C.ar    1  UNL1        0.0091
     15 C          64.4839   89.2108   14.5495 C.ar    1  UNL1       -0.0017
     16 C          64.4548   87.7202   14.7144 C.ar    1  UNL1        0.0007
     17 C          63.7964   86.8633   13.6741 C.ar    1  UNL1        0.0122
     18 C          63.1671   87.4970   12.4690 C.ar    1  UNL1        0.0679
     19 CL         62.5086   86.6400   11.4287 Cl      1  UNL1       -0.0814
     20 C          63.1961   88.9876   12.3042 C.ar    1  UNL1        0.0658
     21 CL         62.5667   89.6213   11.0991 Cl      1  UNL1       -0.0816
@<TRIPOS>BOND
     1    10    11    1
     2    11    12    1
     3    11     1    1
     4     1     2    2
     5     1     3   am
     6     3    13    1
     7    13    14    1
     8    14    15   ar
     9    15    16   ar
    10    16    17   ar
    11    17    18   ar
    12    18    19    1
    13    18    20   ar
    14    20    21    1
    15     4     3    1
    16     4     5    1
    17     5     6    1
    18     6     7    1
    19     7     8    1
    20    20    14   ar
    21     8     4    1
    22     7     9    1
@<TRIPOS>MOLECULE
*****
 21 22 0 0 0
SMALL
GASTEIGER

@<TRIPOS>ATOM
      1 C          63.6925   82.9836   14.2150 C.2     1  UNL1        0.2254
      2 O          64.3440   82.6394   15.5215 O.2     1  UNL1       -0.2749
      3 N          63.8409   84.3623   13.6431 N.am    1  UNL1       -0.2756
      4 C          63.1895   84.7065   12.3365 C.3     1  UNL1        0.0927
      5 C          61.9963   85.5971   12.1539 C.3     1  UNL1        0.0383
      6 C          61.6862   85.6615   10.6876 C.3     1  UNL1        0.0704
      7 N          62.6877   84.8107    9.9642 N.3     1  UNL1       -0.2960
      8 C          63.6167   84.2205   10.9833 C.3     1  UNL1        0.0887
      9 H          63.2155   85.3825    9.3047 H       1  UNL1        0.1233
     10 C          61.4945   81.6301   13.9201 C.3     1  UNL1        0.0096
     11 C          62.8926   81.9490   13.4802 C.3     1  UNL1        0.0767
     12 C          63.4909   81.2333   12.3056 C.3     1  UNL1        0.0096
     13 C          64.6408   85.3969   14.3779 C.3     1  UNL1        0.1210
     14 C          64.0025   86.2011   15.4715 C.ar    1  UNL1        0.0091
     15 C          63.4214   85.5099   16.6692 C.ar    1  UNL1       -0.0017
     16 C          62.7831   86.3141   17.7629 C.ar    1  UNL1        0.0007
     17 C          62.7261   87.8093   17.6587 C.ar    1  UNL1        0.0122
     18 C          63.3072   88.5005   16.4610 C.ar    1  UNL1        0.0679
     19 CL         63.2501   89.9958   16.3569 Cl      1  UNL1       -0.0814
     20 C          63.9455   87.6964   15.3674 C.ar    1  UNL1        0.0658
     21 CL         64.5266   88.3875   14.1697 Cl      1  UNL1       -0.0816
@<TRIPOS>BOND
     1    10    11    1
     2    11    12    1
     3    11     1    1
     4     1     2    2
     5     1     3   am
     6     3    13    1
     7    13    14    1
     8    14    15   ar
     9    15    16   ar
    10    16    17   ar
    11    17    18   ar
    12    18    19    1
    13    18    20   ar
    14    20    21    1
    15     4     3    1
    16     4     5    1
    17     5     6    1
    18     6     7    1
    19     7     8    1
    20    20    14   ar
    21     8     4    1
    22     7     9    1
@<TRIPOS>MOLECULE
*****
 21 22 0 0 0
SMALL
GASTEIGER

@<TRIPOS>ATOM
      1 C          62.3694   87.1914   11.2151 C.2     1  UNL1        0.2254
      2 O          63.2880   87.3174   12.3942 O.2     1  UNL1       -0.2749
      3 N          61.4577   88.3251   10.8501 N.am    1  UNL1       -0.2756
      4 C          60.5390   88.1991    9.6709 C.3     1  UNL1        0.0927
      5 C          60.4260   89.1705    8.5336 C.3     1  UNL1        0.0383
      6 C          59.3893   88.6513    7.5818 C.3     1  UNL1        0.0704
      7 N          58.8617   87.3590    8.1310 N.3     1  UNL1       -0.2960
      8 C          59.5723   87.0795    9.4222 C.3     1  UNL1        0.0887
      9 H          59.0378   86.6037    7.4685 H       1  UNL1        0.1233
     10 C          62.0157   84.6229   11.0470 C.3     1  UNL1        0.0096
     11 C          62.3625   85.9315   10.4009 C.3     1  UNL1        0.0767
     12 C          62.7025   85.9802    8.9408 C.3     1  UNL1        0.0096
     13 C          61.4645   89.5850   11.6642 C.3     1  UNL1        0.1210
     14 C          62.6745   90.4716   11.6639 C.ar    1  UNL1        0.0091
     15 C          63.1158   91.1378   10.3945 C.ar    1  UNL1       -0.0017
     16 C          64.3257   92.0244   10.3942 C.ar    1  UNL1        0.0007
     17 C          65.0943   92.2447   11.6633 C.ar    1  UNL1        0.0122
     18 C          64.6530   91.5785   12.9327 C.ar    1  UNL1        0.0679
     19 CL         65.4217   91.7988   14.2018 Cl      1  UNL1       -0.0814
     20 C          63.4431   90.6919   12.9330 C.ar    1  UNL1        0.0658
     21 CL         63.0018   90.0257   14.2024 Cl      1  UNL1       -0.0816
@<TRIPOS>BOND
     1    10    11    1
     2    11    12    1
     3    11     1    1
     4     1     2    2
     5     1     3   am
     6     3    13    1
     7    13    14    1
     8    14    15   ar
     9    15    16   ar
    10    16    17   ar
    11    17    18   ar
    12    18    19    1
    13    18    20   ar
    14    20    21    1
    15     4     3    1
    16     4     5    1
    17     5     6    1
    18     6     7    1
    19     7     8    1
    20    20    14   ar
    21     8     4    1
    22     7     9    1
@<TRIPOS>MOLECULE
*****
 21 22 0 0 0
SMALL
GASTEIGER

@<TRIPOS>ATOM
      1 C          60.1906   89.2225    9.8094 C.2     1  UNL1        0.2254
      2 O          59.6434   90.5846   10.1180 O.2     1  UNL1       -0.2749
      3 N          61.2164   88.6041   10.7124 N.am    1  UNL1       -0.2756
      4 C          61.7636   87.2419   10.4038 C.3     1  UNL1        0.0927
      5 C          62.5285   86.8575    9.1721 C.3     1  UNL1        0.0383
      6 C          62.8796   85.4030    9.2798 C.3     1  UNL1        0.0704
      7 N          62.3316   84.8887   10.5780 N.3     1  UNL1       -0.2960
      8 C          61.6418   86.0253   11.2726 C.3     1  UNL1        0.0887
      9 H          63.0921   84.5377   11.1600 H       1  UNL1        0.1233
     10 C          59.7987   89.1170    7.2432 C.3     1  UNL1        0.0096
     11 C          59.7120   88.4787    8.5979 C.3     1  UNL1        0.0767
     12 C          59.1467   87.0967    8.7410 C.3     1  UNL1        0.0096
     13 C          61.6950   89.3478   11.9239 C.3     1  UNL1        0.1210
     14 C          62.8387   90.3115   11.8091 C.ar    1  UNL1        0.0091
     15 C          63.1437   90.9600   10.4914 C.ar    1  UNL1       -0.0017
     16 C          64.2874   91.9237   10.3765 C.ar    1  UNL1        0.0007
     17 C          65.1262   92.2388   11.5794 C.ar    1  UNL1        0.0122
     18 C          64.8212   91.5903   12.8972 C.ar    1  UNL1        0.0679
     19 CL         65.6601   91.9055   14.1002 Cl      1  UNL1       -0.0814
     20 C          63.6775   90.6267   13.0120 C.ar    1  UNL1        0.0658
     21 CL         63.3726   89.9782   14.3298 Cl      1  UNL1       -0.0816
@<TRIPOS>BOND
     1    10    11    1
     2    11    12    1
     3    11     1    1
     4     1     2    2
     5     1     3   am
     6     3    13    1
     7    13    14    1
     8    14    15   ar
     9    15    16   ar
    10    16    17   ar
    11    17    18   ar
    12    18    19    1
    13    18    20   ar
    14    20    21    1
    15     4     3    1
    16     4     5    1
    17     5     6    1
    18     6     7    1
    19     7     8    1
    20    20    14   ar
    21     8     4    1
    22     7     9    1
@<TRIPOS>MOLECULE
*****
 21 22 0 0 0
SMALL
GASTEIGER

@<TRIPOS>ATOM
      1 C          63.0087   82.1253   12.1002 C.2     1  UNL1        0.2254
      2 O          62.8812   81.5842   10.7070 O.2     1  UNL1       -0.2749
      3 N          63.3960   83.5583   12.3157 N.am    1  UNL1       -0.2756
      4 C          63.5235   84.0994   13.7089 C.3     1  UNL1        0.0927
      5 C          62.3928   84.3682   14.6572 C.3     1  UNL1        0.0383
      6 C          62.9746   84.9016   15.9328 C.3     1  UNL1        0.0704
      7 N          64.4648   84.9624   15.7728 N.3     1  UNL1       -0.2960
      8 C          64.8041   84.4666   14.3984 C.3     1  UNL1        0.0887
      9 H          64.9126   84.3722   16.4740 H       1  UNL1        0.1233
     10 C          61.3455   81.0224   13.7638 C.3     1  UNL1        0.0096
     11 C          62.7489   81.2333   13.2780 C.3     1  UNL1        0.0767
     12 C          63.8924   80.5525   13.9698 C.3     1  UNL1        0.0096
     13 C          63.6558   84.4502   11.1380 C.3     1  UNL1        0.1210
     14 C          62.5611   85.3260   10.6045 C.ar    1  UNL1        0.0091
     15 C          61.8060   86.2315   11.5317 C.ar    1  UNL1       -0.0017
     16 C          60.7113   87.1073   10.9983 C.ar    1  UNL1        0.0007
     17 C          60.3717   87.0775    9.5375 C.ar    1  UNL1        0.0122
     18 C          61.1268   86.1720    8.6103 C.ar    1  UNL1        0.0679
     19 CL         60.7872   86.1422    7.1495 Cl      1  UNL1       -0.0814
     20 C          62.2215   85.2962    9.1438 C.ar    1  UNL1        0.0658
     21 CL         62.9766   84.3907    8.2165 Cl      1  UNL1       -0.0816
@<TRIPOS>BOND
     1    10    11    1
     2    11    12    1
     3    11     1    1
     4     1     2    2
     5     1     3   am
     6     3    13    1
     7    13    14    1
     8    14    15   ar
     9    15    16   ar
    10    16    17   ar
    11    17    18   ar
    12    18    19    1
    13    18    20   ar
    14    20    21    1
    15     4     3    1
    16     4     5    1
    17     5     6    1
    18     6     7    1
    19     7     8    1
    20    20    14   ar
    21     8     4    1
    22     7     9    1
@<TRIPOS>MOLECULE
*****
 21 22 0 0 0
SMALL
GASTEIGER

@<TRIPOS>ATOM
      1 C          62.9211   88.4954   12.1193 C.2     1  UNL1        0.2254
      2 O          63.7069   87.7040   13.1223 O.2     1  UNL1       -0.2749
      3 N          61.7988   87.8464   11.3648 N.am    1  UNL1       -0.2756
      4 C          61.0130   88.6379   10.3617 C.3     1  UNL1        0.0927
      5 C          60.8532   88.3070    8.9074 C.3     1  UNL1        0.0383
      6 C          59.9904   89.3638    8.2837 C.3     1  UNL1        0.0704
      7 N          59.6170   90.3477    9.3527 N.3     1  UNL1       -0.2960
      8 C          60.2490   89.8990   10.6369 C.3     1  UNL1        0.0887
      9 H          58.6028   90.3766    9.4575 H       1  UNL1        0.1233
     10 C          63.3554   90.8927   13.0218 C.3     1  UNL1        0.0096
     11 C          63.2575   89.9360   11.8707 C.3     1  UNL1        0.0767
     12 C          63.4960   90.4197   10.4710 C.3     1  UNL1        0.0096
     13 C          61.4624   86.4059   11.6133 C.3     1  UNL1        0.1210
     14 C          62.3689   85.3251   11.1030 C.ar    1  UNL1        0.0091
     15 C          62.6799   85.2366    9.6383 C.ar    1  UNL1       -0.0017
     16 C          63.5863   84.1560    9.1280 C.ar    1  UNL1        0.0007
     17 C          64.1817   83.1637   10.0824 C.ar    1  UNL1        0.0122
     18 C          63.8707   83.2522   11.5472 C.ar    1  UNL1        0.0679
     19 CL         64.4661   82.2599   12.5016 Cl      1  UNL1       -0.0814
     20 C          62.9642   84.3329   12.0575 C.ar    1  UNL1        0.0658
     21 CL         62.6532   84.4214   13.5222 Cl      1  UNL1       -0.0816
@<TRIPOS>BOND
     1    10    11    1
     2    11    12    1
     3    11     1    1
     4     1     2    2
     5     1     3   am
     6     3    13    1
     7    13    14    1
     8    14    15   ar
     9    15    16   ar
    10    16    17   ar
    11    17    18   ar
    12    18    19    1
    13    18    20   ar
    14    20    21    1
    15     4     3    1
    16     4     5    1
    17     5     6    1
    18     6     7    1
    19     7     8    1
    20    20    14   ar
    21     8     4    1
    22     7     9    1
@<TRIPOS>MOLECULE
*****
 21 22 0 0 0
SMALL
GASTEIGER

@<TRIPOS>ATOM
      1 C          62.8698   88.3891   12.2067 C.2     1  UNL1        0.2254
      2 O          63.5780   88.7693   13.4731 O.2     1  UNL1       -0.2749
      3 N          62.8426   86.9563   11.7637 N.am    1  UNL1       -0.2756
      4 C          62.1343   86.5761   10.4972 C.3     1  UNL1        0.0927
      5 C          62.7814   86.3169    9.1690 C.3     1  UNL1        0.0383
      6 C          61.7018   85.9690    8.1874 C.3     1  UNL1        0.0704
      7 N          60.3874   86.0132    8.9091 N.3     1  UNL1       -0.2960
      8 C          60.6548   86.3884   10.3366 C.3     1  UNL1        0.0887
      9 H          59.9401   85.0974    8.8699 H       1  UNL1        0.1233
     10 C          60.7604   89.8046   11.6620 C.3     1  UNL1        0.0096
     11 C          62.1888   89.4418   11.3831 C.3     1  UNL1        0.0767
     12 C          62.9364   90.1316   10.2807 C.3     1  UNL1        0.0096
     13 C          63.5235   85.9036   12.5872 C.3     1  UNL1        0.1210
     14 C          63.2737   84.4518   12.3041 C.ar    1  UNL1        0.0091
     15 C          63.7278   83.8519   11.0065 C.ar    1  UNL1       -0.0017
     16 C          63.4781   82.4002   10.7233 C.ar    1  UNL1        0.0007
     17 C          62.7743   81.5485   11.7378 C.ar    1  UNL1        0.0122
     18 C          62.3202   82.1485   13.0355 C.ar    1  UNL1        0.0679
     19 CL         61.6164   81.2967   14.0500 Cl      1  UNL1       -0.0814
     20 C          62.5699   83.6001   13.3186 C.ar    1  UNL1        0.0658
     21 CL         62.1159   84.2001   14.6162 Cl      1  UNL1       -0.0816
@<TRIPOS>BOND
     1    10    11    1
     2    11    12    1
     3    11     1    1
     4     1     2    2
     5     1     3   am
     6     3    13    1
     7    13    14    1
     8    14    15   ar
     9    15    16   ar
    10    16    17   ar
    11    17    18   ar
    12    18    19    1
    13    18    20   ar
    14    20    21    1
    15     4     3    1
    16     4     5    1
    17     5     6    1
    18     6     7    1
    19     7     8    1
    20    20    14   ar
    21     8     4    1
    22     7     9    1
@<TRIPOS>MOLECULE
*****
 21 22 0 0 0
SMALL
GASTEIGER

@<TRIPOS>ATOM
      1 C          63.6553   85.7973   13.5059 C.2     1  UNL1        0.2254
      2 O          63.5145   87.2103   13.9889 O.2     1  UNL1       -0.2749
      3 N          63.2602   85.4412   12.1034 N.am    1  UNL1       -0.2756
      4 C          63.4010   84.0280   11.6204 C.3     1  UNL1        0.0927
      5 C          62.4101   82.9217   11.8304 C.3     1  UNL1        0.0383
      6 C          62.9541   81.6829   11.1825 C.3     1  UNL1        0.0704
      7 N          64.2813   82.0238   10.5721 N.3     1  UNL1       -0.2960
      8 C          64.5574   83.4731   10.8428 C.3     1  UNL1        0.0887
      9 H          64.2520   81.8591    9.5659 H       1  UNL1        0.1233
     10 C          65.6687   84.4942   14.5051 C.3     1  UNL1        0.0096
     11 C          64.1911   84.7402   14.4255 C.3     1  UNL1        0.0767
     12 C          63.2495   83.9292   15.2655 C.3     1  UNL1        0.0096
     13 C          62.7244   86.4981   11.1839 C.3     1  UNL1        0.1210
     14 C          62.1974   86.1189    9.8316 C.ar    1  UNL1        0.0091
     15 C          63.0423   85.3018    8.8996 C.ar    1  UNL1       -0.0017
     16 C          62.5154   84.9226    7.5474 C.ar    1  UNL1        0.0007
     17 C          61.1437   85.3604    7.1271 C.ar    1  UNL1        0.0122
     18 C          60.2989   86.1775    8.0591 C.ar    1  UNL1        0.0679
     19 CL         58.9271   86.6154    7.6388 Cl      1  UNL1       -0.0814
     20 C          60.8257   86.5568    9.4113 C.ar    1  UNL1        0.0658
     21 CL         59.9809   87.3739   10.3433 Cl      1  UNL1       -0.0816
@<TRIPOS>BOND
     1    10    11    1
     2    11    12    1
     3    11     1    1
     4     1     2    2
     5     1     3   am
     6     3    13    1
     7    13    14    1
     8    14    15   ar
     9    15    16   ar
    10    16    17   ar
    11    17    18   ar
    12    18    19    1
    13    18    20   ar
    14    20    21    1
    15     4     3    1
    16     4     5    1
    17     5     6    1
    18     6     7    1
    19     7     8    1
    20    20    14   ar
    21     8     4    1
    22     7     9    1
