@<TRIPOS>MOLECULE
*****
 34 38 0 0 0
SMALL
GASTEIGER

@<TRIPOS>ATOM
      1 C          63.0563   88.8942   11.6819 C.ar    1  UNL1        0.1074
      2 C          62.3108   89.6015   10.5893 C.ar    1  UNL1        0.0588
      3 S          62.7505   91.0356   10.5812 S.2     1  UNL1       -0.0508
      4 C          63.7679   91.2145   11.6689 C.ar    1  UNL1        0.1646
      5 N          63.9569   89.8911   12.3491 N.ar    1  UNL1       -0.2224
      6 C          63.4269   85.4745   13.6614 C.ar    1  UNL1        0.2416
      7 N          63.5588   86.9242   13.2996 N.ar    1  UNL1       -0.2089
      8 C          62.9245   87.4445   12.0437 C.ar    1  UNL1        0.1026
      9 C          62.1584   86.5150   11.1498 C.ar    1  UNL1        0.0224
     10 C          62.0265   85.0652   11.5117 C.ar    1  UNL1        0.0239
     11 C          62.6608   84.5450   12.7675 C.ar    1  UNL1        0.1189
     12 N          62.5290   83.0953   13.1293 N.ar    1  UNL1       -0.2826
     13 C          62.1769   82.5529   14.4828 C.ar    1  UNL1        0.1826
     14 N          62.1563   81.0559   14.3913 N.ar    1  UNL1       -0.2280
     15 C          62.4958   80.6730   12.9811 C.ar    1  UNL1        0.0786
     16 C          62.5886   79.2751   12.4451 C.3     1  UNL1        0.0538
     17 C          62.7260   81.9335   12.2012 C.ar    1  UNL1        0.0963
     18 C          63.7789   85.6201   16.2314 C.3     1  UNL1        0.2543
     19 O          64.0611   84.9543   14.9172 O.3     1  UNL1       -0.4551
     20 N          64.4726   92.4926   12.0155 N.pl3   1  UNL1       -0.2786
     21 H          63.9929   93.3504   11.9579 H       1  UNL1        0.1555
     22 C          65.9080   92.4636   12.4497 C.ar    1  UNL1        0.1276
     23 C          66.4009   92.4728   13.8664 C.ar    1  UNL1        0.0244
     24 C          67.9001   92.4353   13.8358 C.ar    1  UNL1        0.0773
     25 N          68.3338   92.4028   12.4002 N.ar    1  UNL1       -0.1728
     26 N          67.1026   92.4204   11.5436 N.ar    1  UNL1       -0.2357
     27 C          68.6767   92.4354   15.1191 C.3     1  UNL1        0.0474
     28 C          67.9541   92.4732   16.4330 C.3     1  UNL1        0.0067
     29 C          66.4548   92.5107   16.4636 C.3     1  UNL1        0.0052
     30 C          65.6783   92.5106   15.1803 C.3     1  UNL1        0.0305
     31 C          67.0715   92.3985   10.0441 C.3     1  UNL1        0.1604
     32 C          68.3546   92.3881    9.2673 C.3     1  UNL1        0.1635
     33 O          69.5385   93.1636    9.7643 O.3     1  UNL1       -0.3799
     34 H          69.3389   94.1124    9.7353 H       1  UNL1        0.2105
@<TRIPOS>BOND
     1    18    19    1
     2    19     6    1
     3     6     7   ar
     4     7     8   ar
     5     8     1    1
     6     1     2   ar
     7     2     3   ar
     8     3     4   ar
     9     4    20    1
    10    20    22    1
    11    22    23   ar
    12    23    24   ar
    13    24    25   ar
    14    25    26   ar
    15    26    31    1
    16    31    32    1
    17    32    33    1
    18    24    27    1
    19    27    28    1
    20    28    29    1
    21    29    30    1
    22     4     5   ar
    23     8     9   ar
    24     9    10   ar
    25    10    11   ar
    26    11    12    1
    27    12    13   ar
    28    13    14   ar
    29    14    15   ar
    30    15    16    1
    31    15    17   ar
    32    11     6   ar
    33    17    12   ar
    34     5     1   ar
    35    26    22   ar
    36    30    23    1
    37    20    21    1
    38    33    34    1
@<TRIPOS>MOLECULE
*****
 34 38 0 0 0
SMALL
GASTEIGER

@<TRIPOS>ATOM
      1 C          62.4366   89.7097   12.0891 C.ar    1  UNL1        0.1074
      2 C          61.0768   90.3276   11.9512 C.ar    1  UNL1        0.0588
      3 S          60.1629   89.3058   11.3424 S.2     1  UNL1       -0.0508
      4 C          60.9580   88.0564   11.1039 C.ar    1  UNL1        0.1646
      5 N          62.3632   88.3060   11.5654 N.ar    1  UNL1       -0.2224
      6 C          65.4873   92.2147   12.4999 C.ar    1  UNL1        0.2416
      7 N          64.2680   91.5463   11.9371 N.ar    1  UNL1       -0.2089
      8 C          63.6558   90.3781   12.6518 C.ar    1  UNL1        0.1026
      9 C          64.2629   89.8785   13.9293 C.ar    1  UNL1        0.0224
     10 C          65.4822   90.5470   14.4920 C.ar    1  UNL1        0.0239
     11 C          66.0943   91.7151   13.7773 C.ar    1  UNL1        0.1189
     12 N          67.3135   92.3835   14.3400 N.ar    1  UNL1       -0.2826
     13 C          68.7364   92.0576   13.9946 C.ar    1  UNL1        0.1826
     14 N          69.6262   92.9679   14.7880 N.ar    1  UNL1       -0.2280
     15 C          68.7533   93.8565   15.6239 C.ar    1  UNL1        0.0786
     16 C          69.2266   94.9195   16.5704 C.3     1  UNL1        0.0538
     17 C          67.3239   93.4952   15.3469 C.ar    1  UNL1        0.0963
     18 C          66.6943   93.1992   10.4205 C.3     1  UNL1        0.2543
     19 O          66.0994   93.3828   11.7852 O.3     1  UNL1       -0.4551
     20 N          60.4389   86.7811   10.5085 N.pl3   1  UNL1       -0.2786
     21 H          59.4748   86.5833   10.5324 H       1  UNL1        0.1555
     22 C          61.3889   85.8073    9.8766 C.ar    1  UNL1        0.1276
     23 C          62.3888   84.9550   10.6004 C.ar    1  UNL1        0.0244
     24 C          63.1236   84.1357    9.5812 C.ar    1  UNL1        0.0773
     25 N          62.5778   84.4817    8.2275 N.ar    1  UNL1       -0.1728
     26 N          61.5057   85.5148    8.4101 N.ar    1  UNL1       -0.2357
     27 C          64.1947   83.1806   10.0174 C.3     1  UNL1        0.0474
     28 C          64.5310   83.0447   11.4729 C.3     1  UNL1        0.0067
     29 C          63.7961   83.8639   12.4921 C.3     1  UNL1        0.0052
     30 C          62.7250   84.8191   12.0559 C.3     1  UNL1        0.0305
     31 C          60.6931   86.1447    7.3179 C.3     1  UNL1        0.1604
     32 C          59.6233   87.1396    7.6577 C.3     1  UNL1        0.1635
     33 O          58.2176   86.6759    7.9003 O.3     1  UNL1       -0.3799
     34 H          57.8493   86.3160    7.0783 H       1  UNL1        0.2105
@<TRIPOS>BOND
     1    18    19    1
     2    19     6    1
     3     6     7   ar
     4     7     8   ar
     5     8     1    1
     6     1     2   ar
     7     2     3   ar
     8     3     4   ar
     9     4    20    1
    10    20    22    1
    11    22    23   ar
    12    23    24   ar
    13    24    25   ar
    14    25    26   ar
    15    26    31    1
    16    31    32    1
    17    32    33    1
    18    24    27    1
    19    27    28    1
    20    28    29    1
    21    29    30    1
    22     4     5   ar
    23     8     9   ar
    24     9    10   ar
    25    10    11   ar
    26    11    12    1
    27    12    13   ar
    28    13    14   ar
    29    14    15   ar
    30    15    16    1
    31    15    17   ar
    32    11     6   ar
    33    17    12   ar
    34     5     1   ar
    35    26    22   ar
    36    30    23    1
    37    20    21    1
    38    33    34    1
@<TRIPOS>MOLECULE
*****
 34 38 0 0 0
SMALL
GASTEIGER

@<TRIPOS>ATOM
      1 C          64.0292   88.9545   14.8513 C.ar    1  UNL1        0.1074
      2 C          63.5034   89.7598   16.0024 C.ar    1  UNL1        0.0588
      3 S          63.9708   91.1747   15.8300 S.2     1  UNL1       -0.0508
      4 C          64.7855   91.2438   14.5724 C.ar    1  UNL1        0.1646
      5 N          64.8215   89.8716   13.9675 N.ar    1  UNL1       -0.2224
      6 C          63.2730   85.5171   13.0177 C.ar    1  UNL1        0.2416
      7 N          63.4997   86.9823   13.2450 N.ar    1  UNL1       -0.2089
      8 C          63.8025   87.4893   14.6239 C.ar    1  UNL1        0.1026
      9 C          63.8784   86.5311   15.7754 C.ar    1  UNL1        0.0224
     10 C          63.6517   85.0658   15.5480 C.ar    1  UNL1        0.0239
     11 C          63.3489   84.5588   14.1691 C.ar    1  UNL1        0.1189
     12 N          63.1222   83.0936   13.9417 N.ar    1  UNL1       -0.2826
     13 C          64.0965   82.1364   13.3215 C.ar    1  UNL1        0.1826
     14 N          63.4579   80.7796   13.2911 N.ar    1  UNL1       -0.2280
     15 C          62.0887   80.8981   13.8925 C.ar    1  UNL1        0.0786
     16 C          61.1006   79.7824   14.0620 C.3     1  UNL1        0.0538
     17 C          61.8813   82.3283   14.2946 C.ar    1  UNL1        0.0963
     18 C          61.8222   85.5853   10.8635 C.3     1  UNL1        0.2543
     19 O          62.9702   85.0101   11.6388 O.3     1  UNL1       -0.4551
     20 N          65.4478   92.4698   14.0171 N.pl3   1  UNL1       -0.2786
     21 H          65.0464   93.3564   14.1660 H       1  UNL1        0.1555
     22 C          66.7217   92.3451   13.2350 C.ar    1  UNL1        0.1276
     23 C          66.9040   92.6886   11.7863 C.ar    1  UNL1        0.0244
     24 C          68.3319   92.4108   11.4202 C.ar    1  UNL1        0.0773
     25 N          69.0319   91.8955   12.6427 N.ar    1  UNL1       -0.1728
     26 N          68.0368   91.8549   13.7643 N.ar    1  UNL1       -0.2357
     27 C          68.8101   92.6628   10.0210 C.3     1  UNL1        0.0474
     28 C          67.8604   93.1928    8.9880 C.3     1  UNL1        0.0067
     29 C          66.4326   93.4706    9.3540 C.3     1  UNL1        0.0052
     30 C          65.9544   93.2186   10.7532 C.3     1  UNL1        0.0305
     31 C          68.3090   91.4034   15.1686 C.3     1  UNL1        0.1604
     32 C          68.2158   92.3813   16.3022 C.3     1  UNL1        0.1635
     33 O          67.0117   93.2663   16.4321 O.3     1  UNL1       -0.3799
     34 H          66.9808   93.8823   15.6835 H       1  UNL1        0.2105
@<TRIPOS>BOND
     1    18    19    1
     2    19     6    1
     3     6     7   ar
     4     7     8   ar
     5     8     1    1
     6     1     2   ar
     7     2     3   ar
     8     3     4   ar
     9     4    20    1
    10    20    22    1
    11    22    23   ar
    12    23    24   ar
    13    24    25   ar
    14    25    26   ar
    15    26    31    1
    16    31    32    1
    17    32    33    1
    18    24    27    1
    19    27    28    1
    20    28    29    1
    21    29    30    1
    22     4     5   ar
    23     8     9   ar
    24     9    10   ar
    25    10    11   ar
    26    11    12    1
    27    12    13   ar
    28    13    14   ar
    29    14    15   ar
    30    15    16    1
    31    15    17   ar
    32    11     6   ar
    33    17    12   ar
    34     5     1   ar
    35    26    22   ar
    36    30    23    1
    37    20    21    1
    38    33    34    1
@<TRIPOS>MOLECULE
*****
 34 38 0 0 0
SMALL
GASTEIGER

@<TRIPOS>ATOM
      1 C          64.6302   90.1148   14.0384 C.ar    1  UNL1        0.1074
      2 C          64.7791   90.7712   15.3788 C.ar    1  UNL1        0.0588
      3 S          65.2049   92.1919   15.1545 S.2     1  UNL1       -0.0508
      4 C          65.3190   92.4135   13.6754 C.ar    1  UNL1        0.1646
      5 N          64.9638   91.1298   12.9856 N.ar    1  UNL1       -0.2224
      6 C          62.9894   86.9244   12.3416 C.ar    1  UNL1        0.2416
      7 N          63.3999   88.3462   12.5862 N.ar    1  UNL1       -0.2089
      8 C          64.2196   88.6930   13.7937 C.ar    1  UNL1        0.1026
      9 C          64.6288   87.6179   14.7564 C.ar    1  UNL1        0.0224
     10 C          64.2182   86.1960   14.5116 C.ar    1  UNL1        0.0239
     11 C          63.3985   85.8493   13.3042 C.ar    1  UNL1        0.1189
     12 N          62.9880   84.4275   13.0595 N.ar    1  UNL1       -0.2826
     13 C          63.1343   83.6772   11.7688 C.ar    1  UNL1        0.1826
     14 N          62.5958   82.2924   11.9741 N.ar    1  UNL1       -0.2280
     15 C          62.1166   82.1867   13.3917 C.ar    1  UNL1        0.0786
     16 C          61.5028   80.9744   14.0268 C.3     1  UNL1        0.0538
     17 C          62.3590   83.5064   14.0624 C.ar    1  UNL1        0.0963
     18 C          61.7620   87.6525   10.1705 C.3     1  UNL1        0.2543
     19 O          62.1697   86.5777   11.1342 O.3     1  UNL1       -0.4551
     20 N          65.7183   93.6941   13.0039 N.pl3   1  UNL1       -0.2786
     21 H          65.4724   94.5584   13.4062 H       1  UNL1        0.1555
     22 C          66.4921   93.6579   11.7194 C.ar    1  UNL1        0.1276
     23 C          66.3373   94.6087   10.5697 C.ar    1  UNL1        0.0244
     24 C          67.3061   94.2029    9.4989 C.ar    1  UNL1        0.0773
     25 N          68.0597   93.0013    9.9868 N.ar    1  UNL1       -0.1728
     26 N          67.5567   92.6644   11.3592 N.ar    1  UNL1       -0.2357
     27 C          67.3769   94.9800    8.2178 C.3     1  UNL1        0.0474
     28 C          66.4789   96.1630    8.0077 C.3     1  UNL1        0.0067
     29 C          65.5101   96.5687    9.0785 C.3     1  UNL1        0.0052
     30 C          65.4392   95.7916   10.3595 C.3     1  UNL1        0.0305
     31 C          68.0343   91.5327   12.2202 C.3     1  UNL1        0.1604
     32 C          68.7204   91.8193   13.5229 C.3     1  UNL1        0.1635
     33 O          70.2086   92.0029   13.5623 O.3     1  UNL1       -0.3799
     34 H          70.6437   91.1676   13.3300 H       1  UNL1        0.2105
@<TRIPOS>BOND
     1    18    19    1
     2    19     6    1
     3     6     7   ar
     4     7     8   ar
     5     8     1    1
     6     1     2   ar
     7     2     3   ar
     8     3     4   ar
     9     4    20    1
    10    20    22    1
    11    22    23   ar
    12    23    24   ar
    13    24    25   ar
    14    25    26   ar
    15    26    31    1
    16    31    32    1
    17    32    33    1
    18    24    27    1
    19    27    28    1
    20    28    29    1
    21    29    30    1
    22     4     5   ar
    23     8     9   ar
    24     9    10   ar
    25    10    11   ar
    26    11    12    1
    27    12    13   ar
    28    13    14   ar
    29    14    15   ar
    30    15    16    1
    31    15    17   ar
    32    11     6   ar
    33    17    12   ar
    34     5     1   ar
    35    26    22   ar
    36    30    23    1
    37    20    21    1
    38    33    34    1
@<TRIPOS>MOLECULE
*****
 34 38 0 0 0
SMALL
GASTEIGER

@<TRIPOS>ATOM
      1 C          63.3852   87.2177   15.4214 C.ar    1  UNL1        0.1074
      2 C          62.9963   87.5275   16.8366 C.ar    1  UNL1        0.0588
      3 S          63.2730   88.9806   17.0857 S.2     1  UNL1       -0.0508
      4 C          63.8327   89.5688   15.8245 C.ar    1  UNL1        0.1646
      5 N          63.9021   88.4792   14.7959 N.ar    1  UNL1       -0.2224
      6 C          63.0028   84.4641   12.5892 C.ar    1  UNL1        0.2416
      7 N          63.1118   85.8009   13.2608 N.ar    1  UNL1       -0.2089
      8 C          63.2762   85.8810   14.7497 C.ar    1  UNL1        0.1026
      9 C          63.3316   84.6242   15.5668 C.ar    1  UNL1        0.0224
     10 C          63.2226   83.2874   14.8950 C.ar    1  UNL1        0.0239
     11 C          63.0582   83.2074   13.4062 C.ar    1  UNL1        0.1189
     12 N          62.9493   81.8707   12.7344 N.ar    1  UNL1       -0.2826
     13 C          62.6403   80.5672   13.4095 C.ar    1  UNL1        0.1826
     14 N          62.6302   79.4937   12.3621 N.ar    1  UNL1       -0.2280
     15 C          62.9329   80.1336   11.0395 C.ar    1  UNL1        0.0786
     16 C          63.0227   79.4282    9.7188 C.3     1  UNL1        0.0538
     17 C          63.1301   81.6027   11.2697 C.ar    1  UNL1        0.0963
     18 C          62.1247   85.4792   10.3646 C.3     1  UNL1        0.2543
     19 O          62.8385   84.3841   11.1003 O.3     1  UNL1       -0.4551
     20 N          64.2499   90.9960   15.6266 N.pl3   1  UNL1       -0.2786
     21 H          64.1756   91.6381   16.3692 H       1  UNL1        0.1555
     22 C          64.7804   91.4449   14.2973 C.ar    1  UNL1        0.1276
     23 C          64.0815   91.3077   12.9772 C.ar    1  UNL1        0.0244
     24 C          64.9720   91.8877   11.9187 C.ar    1  UNL1        0.0773
     25 N          66.2214   92.3834   12.5846 N.ar    1  UNL1       -0.1728
     26 N          66.1030   92.1096   14.0547 N.ar    1  UNL1       -0.2357
     27 C          64.5303   91.8897   10.4852 C.3     1  UNL1        0.0474
     28 C          63.1980   91.3115   10.1103 C.3     1  UNL1        0.0067
     29 C          62.3074   90.7315   11.1688 C.3     1  UNL1        0.0052
     30 C          62.7491   90.7296   12.6022 C.3     1  UNL1        0.0305
     31 C          67.1273   92.4423   15.0988 C.3     1  UNL1        0.1604
     32 C          68.5872   92.4030   14.7566 C.3     1  UNL1        0.1635
     33 O          69.0300   91.8953   13.4164 O.3     1  UNL1       -0.3799
     34 H          68.8206   90.9511   13.3430 H       1  UNL1        0.2105
@<TRIPOS>BOND
     1    18    19    1
     2    19     6    1
     3     6     7   ar
     4     7     8   ar
     5     8     1    1
     6     1     2   ar
     7     2     3   ar
     8     3     4   ar
     9     4    20    1
    10    20    22    1
    11    22    23   ar
    12    23    24   ar
    13    24    25   ar
    14    25    26   ar
    15    26    31    1
    16    31    32    1
    17    32    33    1
    18    24    27    1
    19    27    28    1
    20    28    29    1
    21    29    30    1
    22     4     5   ar
    23     8     9   ar
    24     9    10   ar
    25    10    11   ar
    26    11    12    1
    27    12    13   ar
    28    13    14   ar
    29    14    15   ar
    30    15    16    1
    31    15    17   ar
    32    11     6   ar
    33    17    12   ar
    34     5     1   ar
    35    26    22   ar
    36    30    23    1
    37    20    21    1
    38    33    34    1
@<TRIPOS>MOLECULE
*****
 34 38 0 0 0
SMALL
GASTEIGER

@<TRIPOS>ATOM
      1 C          59.7143   91.1891    4.7551 C.ar    1  UNL1        0.1074
      2 C          58.2533   91.4788    4.9323 C.ar    1  UNL1        0.0588
      3 S          57.7126   90.5252    5.9562 S.2     1  UNL1       -0.0508
      4 C          58.8394   89.6462    6.4117 C.ar    1  UNL1        0.1646
      5 N          60.0766   90.0565    5.6694 N.ar    1  UNL1       -0.2224
      6 C          61.1086   93.8244    2.1357 C.ar    1  UNL1        0.2416
      7 N          60.1738   93.1074    3.0642 N.ar    1  UNL1       -0.2089
      8 C          60.6490   91.9061    3.8266 C.ar    1  UNL1        0.1026
      9 C          62.0590   91.4220    3.6605 C.ar    1  UNL1        0.0224
     10 C          62.9937   92.1391    2.7319 C.ar    1  UNL1        0.0239
     11 C          62.5185   93.3403    1.9695 C.ar    1  UNL1        0.1189
     12 N          63.4532   94.0573    1.0410 N.ar    1  UNL1       -0.2826
     13 C          64.7335   94.7358    1.4293 C.ar    1  UNL1        0.1826
     14 N          65.3433   95.3196    0.1896 N.ar    1  UNL1       -0.2280
     15 C          64.4399   95.0020   -0.9652 C.ar    1  UNL1        0.0786
     16 C          64.6651   95.3955   -2.3950 C.3     1  UNL1        0.0538
     17 C          63.2717   94.2219   -0.4388 C.ar    1  UNL1        0.0963
     18 C          59.4729   94.9047    0.4305 C.3     1  UNL1        0.2543
     19 O          60.6333   95.0256    1.3733 O.3     1  UNL1       -0.4551
     20 N          58.7456   88.5494    7.4307 N.pl3   1  UNL1       -0.2786
     21 H          57.8878   88.0907    7.5827 H       1  UNL1        0.1555
     22 C          59.9587   88.1514    8.2181 C.ar    1  UNL1        0.1276
     23 C          60.8138   86.9442    7.9701 C.ar    1  UNL1        0.0244
     24 C          61.9133   86.9374    8.9904 C.ar    1  UNL1        0.0773
     25 N          61.7376   88.1404    9.8690 N.ar    1  UNL1       -0.1728
     26 N          60.5296   88.8907    9.3917 N.ar    1  UNL1       -0.2357
     27 C          62.9323   85.8367    8.9876 C.3     1  UNL1        0.0474
     28 C          62.8518   84.7428    7.9645 C.3     1  UNL1        0.0067
     29 C          61.7523   84.7496    6.9442 C.3     1  UNL1        0.0052
     30 C          60.7333   85.8503    6.9469 C.3     1  UNL1        0.0305
     31 C          59.9878   90.1578    9.9840 C.3     1  UNL1        0.1604
     32 C          59.7369   90.2484   11.4601 C.3     1  UNL1        0.1635
     33 O          60.7890   89.7961   12.4288 O.3     1  UNL1       -0.3799
     34 H          60.9160   88.8381   12.3443 H       1  UNL1        0.2105
@<TRIPOS>BOND
     1    18    19    1
     2    19     6    1
     3     6     7   ar
     4     7     8   ar
     5     8     1    1
     6     1     2   ar
     7     2     3   ar
     8     3     4   ar
     9     4    20    1
    10    20    22    1
    11    22    23   ar
    12    23    24   ar
    13    24    25   ar
    14    25    26   ar
    15    26    31    1
    16    31    32    1
    17    32    33    1
    18    24    27    1
    19    27    28    1
    20    28    29    1
    21    29    30    1
    22     4     5   ar
    23     8     9   ar
    24     9    10   ar
    25    10    11   ar
    26    11    12    1
    27    12    13   ar
    28    13    14   ar
    29    14    15   ar
    30    15    16    1
    31    15    17   ar
    32    11     6   ar
    33    17    12   ar
    34     5     1   ar
    35    26    22   ar
    36    30    23    1
    37    20    21    1
    38    33    34    1
@<TRIPOS>MOLECULE
*****
 34 38 0 0 0
SMALL
GASTEIGER

@<TRIPOS>ATOM
      1 C          63.5850   87.7853   14.3161 C.ar    1  UNL1        0.1074
      2 C          63.5131   88.2475   15.7412 C.ar    1  UNL1        0.0588
      3 S          63.7104   89.7344   15.7567 S.2     1  UNL1       -0.0508
      4 C          63.9042   90.1911   14.3411 C.ar    1  UNL1        0.1646
      5 N          63.8268   88.9864   13.4507 N.ar    1  UNL1       -0.2224
      6 C          62.7943   84.6778   11.9775 C.ar    1  UNL1        0.2416
      7 N          62.9387   86.0929   12.4537 N.ar    1  UNL1       -0.2089
      8 C          63.4406   86.3702   13.8398 C.ar    1  UNL1        0.1026
      9 C          63.7980   85.2325   14.7497 C.ar    1  UNL1        0.0224
     10 C          63.6536   83.8174   14.2734 C.ar    1  UNL1        0.0239
     11 C          63.1517   83.5401   12.8873 C.ar    1  UNL1        0.1189
     12 N          63.0073   82.1251   12.4111 N.ar    1  UNL1       -0.2826
     13 C          62.6617   80.9392   13.2623 C.ar    1  UNL1        0.1826
     14 N          62.6239   79.7287   12.3774 N.ar    1  UNL1       -0.2280
     15 C          62.9461   80.1664   10.9792 C.ar    1  UNL1        0.0786
     16 C          63.0187   79.2788    9.7722 C.3     1  UNL1        0.0538
     17 C          63.1831   81.6475   11.0001 C.ar    1  UNL1        0.0963
     18 C          62.4804   85.4204    9.5077 C.3     1  UNL1        0.2543
     19 O          62.2925   84.4005   10.5914 O.3     1  UNL1       -0.4551
     20 N          64.1351   91.6043   13.8943 N.pl3   1  UNL1       -0.2786
     21 H          63.3809   92.2354   13.8482 H       1  UNL1        0.1555
     22 C          65.5150   92.0559   13.5177 C.ar    1  UNL1        0.1276
     23 C          66.6821   92.1951   14.4496 C.ar    1  UNL1        0.0244
     24 C          67.8586   92.6728   13.6510 C.ar    1  UNL1        0.0773
     25 N          67.4184   92.8290   12.2255 N.ar    1  UNL1       -0.1728
     26 N          65.9700   92.4477   12.1431 N.ar    1  UNL1       -0.2357
     27 C          69.1785   92.9039   14.3249 C.3     1  UNL1        0.0474
     28 C          69.3221   92.6573   15.7975 C.3     1  UNL1        0.0067
     29 C          68.1457   92.1795   16.5961 C.3     1  UNL1        0.0052
     30 C          66.8257   91.9484   15.9222 C.3     1  UNL1        0.0305
     31 C          65.1251   92.4567   10.9038 C.3     1  UNL1        0.1604
     32 C          63.9802   91.4969   10.7697 C.3     1  UNL1        0.1635
     33 O          63.0038   91.6472    9.6410 O.3     1  UNL1       -0.3799
     34 H          62.5098   92.4750    9.7488 H       1  UNL1        0.2105
@<TRIPOS>BOND
     1    18    19    1
     2    19     6    1
     3     6     7   ar
     4     7     8   ar
     5     8     1    1
     6     1     2   ar
     7     2     3   ar
     8     3     4   ar
     9     4    20    1
    10    20    22    1
    11    22    23   ar
    12    23    24   ar
    13    24    25   ar
    14    25    26   ar
    15    26    31    1
    16    31    32    1
    17    32    33    1
    18    24    27    1
    19    27    28    1
    20    28    29    1
    21    29    30    1
    22     4     5   ar
    23     8     9   ar
    24     9    10   ar
    25    10    11   ar
    26    11    12    1
    27    12    13   ar
    28    13    14   ar
    29    14    15   ar
    30    15    16    1
    31    15    17   ar
    32    11     6   ar
    33    17    12   ar
    34     5     1   ar
    35    26    22   ar
    36    30    23    1
    37    20    21    1
    38    33    34    1
@<TRIPOS>MOLECULE
*****
 34 38 0 0 0
SMALL
GASTEIGER

@<TRIPOS>ATOM
      1 C          64.6129   90.2502   14.0437 C.ar    1  UNL1        0.1074
      2 C          64.6676   90.9357   15.3768 C.ar    1  UNL1        0.0588
      3 S          65.1052   92.3527   15.1516 S.2     1  UNL1       -0.0508
      4 C          65.3210   92.5428   13.6795 C.ar    1  UNL1        0.1646
      5 N          65.0168   91.2434   12.9948 N.ar    1  UNL1       -0.2224
      6 C          64.1950   86.3378   14.5621 C.ar    1  UNL1        0.2416
      7 N          64.5851   87.7659   14.8038 N.ar    1  UNL1       -0.2089
      8 C          64.2229   88.8221   13.8021 C.ar    1  UNL1        0.1026
      9 C          63.4706   88.4501   12.5588 C.ar    1  UNL1        0.0224
     10 C          63.0806   87.0220   12.3172 C.ar    1  UNL1        0.0239
     11 C          63.4428   85.9658   13.3189 C.ar    1  UNL1        0.1189
     12 N          63.0528   84.5377   13.0773 N.ar    1  UNL1       -0.2826
     13 C          62.1876   83.6971   13.9689 C.ar    1  UNL1        0.1826
     14 N          62.0595   82.3394   13.3443 N.ar    1  UNL1       -0.2280
     15 C          62.8456   82.3408   12.0667 C.ar    1  UNL1        0.0786
     16 C          62.9920   81.1863   11.1203 C.3     1  UNL1        0.0538
     17 C          63.4594   83.6995   11.9017 C.ar    1  UNL1        0.0963
     18 C          63.6584   85.0196   16.7357 C.3     1  UNL1        0.2543
     19 O          64.5573   85.2816   15.5638 O.3     1  UNL1       -0.4551
     20 N          65.7635   93.8100   13.0096 N.pl3   1  UNL1       -0.2786
     21 H          65.5588   94.6812   13.4200 H       1  UNL1        0.1555
     22 C          66.5176   93.7498   11.7143 C.ar    1  UNL1        0.1276
     23 C          66.3568   94.6892   10.5560 C.ar    1  UNL1        0.0244
     24 C          67.3048   94.2597    9.4758 C.ar    1  UNL1        0.0773
     25 N          68.0514   93.0548    9.9666 N.ar    1  UNL1       -0.1728
     26 N          67.5650   92.7397   11.3501 N.ar    1  UNL1       -0.2357
     27 C          67.3656   95.0211    8.1849 C.3     1  UNL1        0.0474
     28 C          66.4784   96.2121    7.9743 C.3     1  UNL1        0.0067
     29 C          65.5305   96.6417    9.0545 C.3     1  UNL1        0.0052
     30 C          65.4697   95.8802   10.3453 C.3     1  UNL1        0.0305
     31 C          68.0420   91.6124   12.2170 C.3     1  UNL1        0.1604
     32 C          68.7355   91.9056   13.5143 C.3     1  UNL1        0.1635
     33 O          70.2276   92.0552   13.5502 O.3     1  UNL1       -0.3799
     34 H          70.6429   91.2061   13.3324 H       1  UNL1        0.2105
@<TRIPOS>BOND
     1    18    19    1
     2    19     6    1
     3     6     7   ar
     4     7     8   ar
     5     8     1    1
     6     1     2   ar
     7     2     3   ar
     8     3     4   ar
     9     4    20    1
    10    20    22    1
    11    22    23   ar
    12    23    24   ar
    13    24    25   ar
    14    25    26   ar
    15    26    31    1
    16    31    32    1
    17    32    33    1
    18    24    27    1
    19    27    28    1
    20    28    29    1
    21    29    30    1
    22     4     5   ar
    23     8     9   ar
    24     9    10   ar
    25    10    11   ar
    26    11    12    1
    27    12    13   ar
    28    13    14   ar
    29    14    15   ar
    30    15    16    1
    31    15    17   ar
    32    11     6   ar
    33    17    12   ar
    34     5     1   ar
    35    26    22   ar
    36    30    23    1
    37    20    21    1
    38    33    34    1
