@<TRIPOS>MOLECULE
*****
 30 31 0 0 0
SMALL
GASTEIGER

@<TRIPOS>ATOM
      1 C          61.5048   88.0938   10.2222 C.2     1  UNL1        0.1957
      2 O          60.5437   88.2035    9.0758 O.2     1  UNL1       -0.2866
      3 C          62.6835   85.9988   11.2079 C.2     1  UNL1        0.0035
      4 C          61.4776   86.8856   11.1107 C.2     1  UNL1        0.0420
      5 C          62.6825   82.2087   12.3849 C.ar    1  UNL1        0.1752
      6 C          62.7098   83.4169   11.4964 C.ar    1  UNL1        0.0402
      7 C          62.6562   84.7905   12.0965 C.ar    1  UNL1        0.0063
      8 C          62.5753   84.9560   13.5851 C.ar    1  UNL1        0.0402
      9 C          62.5480   83.7478   14.4736 C.ar    1  UNL1        0.1752
     10 C          62.6017   82.3742   13.8735 C.ar    1  UNL1        0.2024
     11 O          62.5744   81.1659   14.7621 O.3     1  UNL1       -0.5009
     12 H          62.5239   81.2693   15.6920 H       1  UNL1        0.2924
     13 C          63.1204   80.6598   10.3455 C.3     1  UNL1        0.2526
     14 O          62.7361   80.8350   11.7848 O.3     1  UNL1       -0.4683
     15 O          62.4672   83.9133   15.9624 O.3     1  UNL1       -0.4683
     16 C          62.5399   85.2828   16.5698 C.3     1  UNL1        0.2526
     17 C          62.4932   89.1923   10.4800 C.2     1  UNL1        0.0420
     18 C          62.8356   89.5777   11.8887 C.2     1  UNL1        0.0035
     19 C          63.8239   90.6762   12.1465 C.ar    1  UNL1        0.0063
     20 C          64.4497   90.8191   13.5023 C.ar    1  UNL1        0.0402
     21 C          65.4380   91.9176   13.7601 C.ar    1  UNL1        0.1752
     22 C          65.8006   92.8732   12.6622 C.ar    1  UNL1        0.2024
     23 O          66.7889   93.9717   12.9200 O.3     1  UNL1       -0.5009
     24 C          65.1748   92.7303   11.3065 C.ar    1  UNL1        0.1752
     25 C          64.1865   91.6318   11.0486 C.ar    1  UNL1        0.0402
     26 H          67.1798   94.0610   13.7669 H       1  UNL1        0.2924
     27 O          66.0638   92.0605   15.1158 O.3     1  UNL1       -0.4683
     28 C          67.5240   91.7721   15.3021 C.3     1  UNL1        0.2526
     29 O          65.5374   93.6858   10.2086 O.3     1  UNL1       -0.4683
     30 C          66.9148   93.6586    9.6151 C.3     1  UNL1        0.2526
@<TRIPOS>BOND
     1    13    14    1
     2    14     5    1
     3     5     6   ar
     4     6     7   ar
     5     7     3    1
     6     3     4    2
     7     4     1    1
     8     1     2    2
     9     1    17    1
    10    17    18    2
    11    18    19    1
    12    19    20   ar
    13    20    21   ar
    14    21    27    1
    15    27    28    1
    16    21    22   ar
    17    22    23    1
    18    22    24   ar
    19    24    29    1
    20    29    30    1
    21    24    25   ar
    22     7     8   ar
    23     8     9   ar
    24     9    15    1
    25    15    16    1
    26     9    10   ar
    27    10    11    1
    28    10     5   ar
    29    25    19   ar
    30    23    26    1
    31    11    12    1
@<TRIPOS>MOLECULE
*****
 30 31 0 0 0
SMALL
GASTEIGER

@<TRIPOS>ATOM
      1 C          61.5673   87.9967   10.2302 C.2     1  UNL1        0.1957
      2 O          60.6276   88.0802    9.0639 O.2     1  UNL1       -0.2866
      3 C          62.8625   89.4992   11.9080 C.2     1  UNL1        0.0035
      4 C          62.5332   89.1129   10.4965 C.2     1  UNL1        0.0420
      5 C          65.1349   92.7048   11.3508 C.ar    1  UNL1        0.1752
      6 C          64.1690   91.5885   11.0847 C.ar    1  UNL1        0.0402
      7 C          63.8284   90.6155   12.1743 C.ar    1  UNL1        0.0063
      8 C          64.4538   90.7588   13.5301 C.ar    1  UNL1        0.0402
      9 C          65.4197   91.8750   13.7963 C.ar    1  UNL1        0.1752
     10 C          65.7603   92.8480   12.7067 C.ar    1  UNL1        0.2024
     11 O          66.7263   93.9643   12.9729 O.3     1  UNL1       -0.5009
     12 H          67.1169   94.0538   13.8199 H       1  UNL1        0.2924
     13 C          66.8333   93.6460    9.6247 C.3     1  UNL1        0.2526
     14 O          65.4754   93.6778   10.2612 O.3     1  UNL1       -0.4683
     15 O          66.0452   92.0183   15.1522 O.3     1  UNL1       -0.4683
     16 C          67.5091   91.7470   15.3353 C.3     1  UNL1        0.2526
     17 C          61.5410   86.7970   11.1302 C.2     1  UNL1        0.0420
     18 C          62.6955   85.8393   11.1373 C.2     1  UNL1        0.0035
     19 C          62.6692   84.6395   12.0372 C.ar    1  UNL1        0.0063
     20 C          62.7142   83.2601   11.4496 C.ar    1  UNL1        0.0402
     21 C          62.6879   82.0603   12.3496 C.ar    1  UNL1        0.1752
     22 C          62.6165   82.2400   13.8371 C.ar    1  UNL1        0.2024
     23 O          62.5902   81.0403   14.7371 O.3     1  UNL1       -0.5009
     24 C          62.5716   83.6194   14.4247 C.ar    1  UNL1        0.1752
     25 C          62.5979   84.8192   13.5247 C.ar    1  UNL1        0.0402
     26 H          62.6183   80.1786   14.3701 H       1  UNL1        0.2924
     27 O          62.7329   80.6809   11.7621 O.3     1  UNL1       -0.4683
     28 C          63.0873   80.4925   10.3167 C.3     1  UNL1        0.2526
     29 O          62.5002   83.7990   15.9121 O.3     1  UNL1       -0.4683
     30 C          62.5200   85.1777   16.5029 C.3     1  UNL1        0.2526
@<TRIPOS>BOND
     1    13    14    1
     2    14     5    1
     3     5     6   ar
     4     6     7   ar
     5     7     3    1
     6     3     4    2
     7     4     1    1
     8     1     2    2
     9     1    17    1
    10    17    18    2
    11    18    19    1
    12    19    20   ar
    13    20    21   ar
    14    21    27    1
    15    27    28    1
    16    21    22   ar
    17    22    23    1
    18    22    24   ar
    19    24    29    1
    20    29    30    1
    21    24    25   ar
    22     7     8   ar
    23     8     9   ar
    24     9    15    1
    25    15    16    1
    26     9    10   ar
    27    10    11    1
    28    10     5   ar
    29    25    19   ar
    30    23    26    1
    31    11    12    1
@<TRIPOS>MOLECULE
*****
 30 31 0 0 0
SMALL
GASTEIGER

@<TRIPOS>ATOM
      1 C          61.5264   88.1411   10.1818 C.2     1  UNL1        0.1957
      2 O          60.5624   88.2669    9.0394 O.2     1  UNL1       -0.2866
      3 C          62.6997   86.0630   11.2088 C.2     1  UNL1        0.0035
      4 C          61.4851   86.9319   11.0684 C.2     1  UNL1        0.0420
      5 C          62.6822   82.2716   12.3814 C.ar    1  UNL1        0.1752
      6 C          62.7235   83.4808   11.4948 C.ar    1  UNL1        0.0402
      7 C          62.6583   84.8537   12.0954 C.ar    1  UNL1        0.0063
      8 C          62.5516   85.0174   13.5826 C.ar    1  UNL1        0.0402
      9 C          62.5102   83.8082   14.4692 C.ar    1  UNL1        0.1752
     10 C          62.5755   82.4353   13.8685 C.ar    1  UNL1        0.2024
     11 O          62.5341   81.2260   14.7552 O.3     1  UNL1       -0.5009
     12 H          62.4675   81.3283   15.6842 H       1  UNL1        0.2924
     13 C          63.1401   80.7267   10.3433 C.3     1  UNL1        0.2526
     14 O          62.7474   80.8986   11.7807 O.3     1  UNL1       -0.4683
     15 O          62.4036   83.9719   15.9564 O.3     1  UNL1       -0.4683
     16 C          62.5555   85.3303   16.5742 C.3     1  UNL1        0.2526
     17 C          62.5317   89.2246   10.4375 C.2     1  UNL1        0.0420
     18 C          62.8196   89.6642   11.8425 C.2     1  UNL1        0.0035
     19 C          63.8249   90.7477   12.0982 C.ar    1  UNL1        0.0063
     20 C          64.2180   91.6822   10.9927 C.ar    1  UNL1        0.0402
     21 C          65.2233   92.7657   11.2484 C.ar    1  UNL1        0.1752
     22 C          65.8355   92.9147   12.6097 C.ar    1  UNL1        0.2024
     23 O          66.8408   93.9982   12.8654 O.3     1  UNL1       -0.5009
     24 C          65.4424   91.9802   13.7152 C.ar    1  UNL1        0.1752
     25 C          64.4371   90.8967   13.4595 C.ar    1  UNL1        0.0402
     26 H          67.0863   94.5820   12.1748 H       1  UNL1        0.2924
     27 O          65.6164   93.7002   10.1429 O.3     1  UNL1       -0.4683
     28 C          67.0005   93.6414    9.5677 C.3     1  UNL1        0.2526
     29 O          66.0546   92.1293   15.0764 O.3     1  UNL1       -0.4683
     30 C          67.4889   91.7509   15.2992 C.3     1  UNL1        0.2526
@<TRIPOS>BOND
     1    13    14    1
     2    14     5    1
     3     5     6   ar
     4     6     7   ar
     5     7     3    1
     6     3     4    2
     7     4     1    1
     8     1     2    2
     9     1    17    1
    10    17    18    2
    11    18    19    1
    12    19    20   ar
    13    20    21   ar
    14    21    27    1
    15    27    28    1
    16    21    22   ar
    17    22    23    1
    18    22    24   ar
    19    24    29    1
    20    29    30    1
    21    24    25   ar
    22     7     8   ar
    23     8     9   ar
    24     9    15    1
    25    15    16    1
    26     9    10   ar
    27    10    11    1
    28    10     5   ar
    29    25    19   ar
    30    23    26    1
    31    11    12    1
@<TRIPOS>MOLECULE
*****
 30 31 0 0 0
SMALL
GASTEIGER

@<TRIPOS>ATOM
      1 C          61.5208   88.1634   10.1994 C.2     1  UNL1        0.1957
      2 O          60.5683   88.2620    9.0448 O.2     1  UNL1       -0.2866
      3 C          62.8779   89.6282   11.8615 C.2     1  UNL1        0.0035
      4 C          62.5069   89.2645   10.4544 C.2     1  UNL1        0.0420
      5 C          65.4543   91.9956   13.7344 C.ar    1  UNL1        0.1752
      6 C          64.4682   90.8944   13.4795 C.ar    1  UNL1        0.0402
      7 C          63.8640   90.7294   12.1165 C.ar    1  UNL1        0.0063
      8 C          64.2460   91.6655   11.0084 C.ar    1  UNL1        0.0402
      9 C          65.2321   92.7666   11.2634 C.ar    1  UNL1        0.1752
     10 C          65.8362   92.9317   12.6264 C.ar    1  UNL1        0.2024
     11 O          66.8224   94.0329   12.8813 O.3     1  UNL1       -0.5009
     12 H          67.0609   94.6176   12.1891 H       1  UNL1        0.2924
     13 C          67.4935   91.7922   15.3313 C.3     1  UNL1        0.2526
     14 O          66.0584   92.1606   15.0974 O.3     1  UNL1       -0.4683
     15 O          65.6140   93.7028   10.1553 O.3     1  UNL1       -0.4683
     16 C          66.9927   93.6457    9.5670 C.3     1  UNL1        0.2526
     17 C          61.4872   86.9635   11.0990 C.2     1  UNL1        0.0420
     18 C          62.6697   86.0430   11.1659 C.2     1  UNL1        0.0035
     19 C          62.6361   84.8431   12.0655 C.ar    1  UNL1        0.0063
     20 C          62.5171   85.0219   13.5501 C.ar    1  UNL1        0.0402
     21 C          62.4835   83.8220   14.4497 C.ar    1  UNL1        0.1752
     22 C          62.5689   82.4434   13.8646 C.ar    1  UNL1        0.2024
     23 O          62.5353   81.2436   14.7642 O.3     1  UNL1       -0.5009
     24 C          62.6879   82.2647   12.3801 C.ar    1  UNL1        0.1752
     25 C          62.7215   83.4646   11.4806 C.ar    1  UNL1        0.0402
     26 H          62.4610   81.3552   15.6916 H       1  UNL1        0.2924
     27 O          62.3645   84.0008   15.9342 O.3     1  UNL1       -0.4683
     28 C          62.6131   85.3458   16.5500 C.3     1  UNL1        0.2526
     29 O          62.7733   80.8861   11.7952 O.3     1  UNL1       -0.4683
     30 C          63.1515   80.7046   10.3550 C.3     1  UNL1        0.2526
@<TRIPOS>BOND
     1    13    14    1
     2    14     5    1
     3     5     6   ar
     4     6     7   ar
     5     7     3    1
     6     3     4    2
     7     4     1    1
     8     1     2    2
     9     1    17    1
    10    17    18    2
    11    18    19    1
    12    19    20   ar
    13    20    21   ar
    14    21    27    1
    15    27    28    1
    16    21    22   ar
    17    22    23    1
    18    22    24   ar
    19    24    29    1
    20    29    30    1
    21    24    25   ar
    22     7     8   ar
    23     8     9   ar
    24     9    15    1
    25    15    16    1
    26     9    10   ar
    27    10    11    1
    28    10     5   ar
    29    25    19   ar
    30    23    26    1
    31    11    12    1
@<TRIPOS>MOLECULE
*****
 30 31 0 0 0
SMALL
GASTEIGER

@<TRIPOS>ATOM
      1 C          61.3984   88.2323   10.0936 C.2     1  UNL1        0.1957
      2 O          60.3955   88.4094    8.9923 O.2     1  UNL1       -0.2866
      3 C          62.6700   89.7892   11.7395 C.2     1  UNL1        0.0035
      4 C          62.4310   89.2908   10.3450 C.2     1  UNL1        0.0420
      5 C          65.3036   92.6871   11.0945 C.ar    1  UNL1        0.1752
      6 C          64.2710   91.6286   10.8432 C.ar    1  UNL1        0.0402
      7 C          63.7027   90.8477   11.9909 C.ar    1  UNL1        0.0063
      8 C          64.1669   91.1254   13.3899 C.ar    1  UNL1        0.0402
      9 C          65.1995   92.1840   13.6413 C.ar    1  UNL1        0.1752
     10 C          65.7678   92.9648   12.4936 C.ar    1  UNL1        0.2024
     11 O          66.8005   94.0234   12.7450 O.3     1  UNL1       -0.5009
     12 H          67.0905   94.1968   13.6189 H       1  UNL1        0.2924
     13 C          67.3150   93.3058    9.5709 C.3     1  UNL1        0.2526
     14 O          65.8720   93.4680    9.9468 O.3     1  UNL1       -0.4683
     15 O          65.6637   92.4617   15.0404 O.3     1  UNL1       -0.4683
     16 C          67.0534   92.0822   15.4586 C.3     1  UNL1        0.2526
     17 C          61.3686   86.9966   10.9435 C.2     1  UNL1        0.0420
     18 C          62.6522   86.3399   11.3573 C.2     1  UNL1        0.0035
     19 C          62.6225   85.1043   12.2072 C.ar    1  UNL1        0.0063
     20 C          62.5762   85.2229   13.7018 C.ar    1  UNL1        0.0402
     21 C          62.5464   83.9872   14.5517 C.ar    1  UNL1        0.1752
     22 C          62.5630   82.6329   13.9069 C.ar    1  UNL1        0.2024
     23 O          62.5333   81.3973   14.7568 O.3     1  UNL1       -0.5009
     24 C          62.6093   82.5143   12.4124 C.ar    1  UNL1        0.1752
     25 C          62.6391   83.7500   11.5625 C.ar    1  UNL1        0.0402
     26 H          62.5043   81.4714   15.6904 H       1  UNL1        0.2924
     27 O          62.5001   84.1058   16.0462 O.3     1  UNL1       -0.4683
     28 C          62.5499   85.4583   16.6932 C.3     1  UNL1        0.2526
     29 O          62.6259   81.1601   11.7677 O.3     1  UNL1       -0.4683
     30 C          63.3419   80.9582   10.4651 C.3     1  UNL1        0.2526
@<TRIPOS>BOND
     1    13    14    1
     2    14     5    1
     3     5     6   ar
     4     6     7   ar
     5     7     3    1
     6     3     4    2
     7     4     1    1
     8     1     2    2
     9     1    17    1
    10    17    18    2
    11    18    19    1
    12    19    20   ar
    13    20    21   ar
    14    21    27    1
    15    27    28    1
    16    21    22   ar
    17    22    23    1
    18    22    24   ar
    19    24    29    1
    20    29    30    1
    21    24    25   ar
    22     7     8   ar
    23     8     9   ar
    24     9    15    1
    25    15    16    1
    26     9    10   ar
    27    10    11    1
    28    10     5   ar
    29    25    19   ar
    30    23    26    1
    31    11    12    1
@<TRIPOS>MOLECULE
*****
 30 31 0 0 0
SMALL
GASTEIGER

@<TRIPOS>ATOM
      1 C          63.0751   87.3982   16.8640 C.2     1  UNL1        0.1957
      2 O          62.9407   87.3567   18.3574 O.2     1  UNL1       -0.2866
      3 C          64.1750   88.6469   14.8687 C.2     1  UNL1        0.0035
      4 C          63.4470   88.6802   16.1798 C.2     1  UNL1        0.0420
      5 C          65.8303   92.1879   14.1822 C.ar    1  UNL1        0.1752
      6 C          65.4585   90.9059   14.8663 C.ar    1  UNL1        0.0402
      7 C          64.5468   89.9290   14.1846 C.ar    1  UNL1        0.0063
      8 C          64.0071   90.2343   12.8188 C.ar    1  UNL1        0.0402
      9 C          64.3790   91.5163   12.1347 C.ar    1  UNL1        0.1752
     10 C          65.2906   92.4931   12.8164 C.ar    1  UNL1        0.2024
     11 O          65.6625   93.7752   12.1323 O.3     1  UNL1       -0.5009
     12 H          65.3253   93.9659   11.2791 H       1  UNL1        0.2924
     13 C          67.5340   92.7393   16.0646 C.3     1  UNL1        0.2526
     14 O          66.7420   93.1647   14.8639 O.3     1  UNL1       -0.4683
     15 O          63.8392   91.8216   10.7688 O.3     1  UNL1       -0.4683
     16 C          62.8080   90.9237   10.1520 C.3     1  UNL1        0.2526
     17 C          62.8377   86.1577   16.0548 C.2     1  UNL1        0.0420
     18 C          63.9721   85.5207   15.3082 C.2     1  UNL1        0.0035
     19 C          63.7347   84.2802   14.4990 C.ar    1  UNL1        0.0063
     20 C          62.8401   83.1989   15.0288 C.ar    1  UNL1        0.0402
     21 C          62.6026   81.9585   14.2196 C.ar    1  UNL1        0.1752
     22 C          63.2598   81.7992   12.8806 C.ar    1  UNL1        0.2024
     23 O          63.0223   80.5588   12.0714 O.3     1  UNL1       -0.5009
     24 C          64.1543   82.8805   12.3508 C.ar    1  UNL1        0.1752
     25 C          64.3917   84.1210   13.1600 C.ar    1  UNL1        0.0402
     26 H          62.4635   79.8833   12.4023 H       1  UNL1        0.2924
     27 O          61.7081   80.8772   14.7494 O.3     1  UNL1       -0.4683
     28 C          60.3683   80.6364   14.1191 C.3     1  UNL1        0.2526
     29 O          64.8114   82.7212   11.0119 O.3     1  UNL1       -0.4683
     30 C          64.1632   83.2925    9.7856 C.3     1  UNL1        0.2526
@<TRIPOS>BOND
     1    13    14    1
     2    14     5    1
     3     5     6   ar
     4     6     7   ar
     5     7     3    1
     6     3     4    2
     7     4     1    1
     8     1     2    2
     9     1    17    1
    10    17    18    2
    11    18    19    1
    12    19    20   ar
    13    20    21   ar
    14    21    27    1
    15    27    28    1
    16    21    22   ar
    17    22    23    1
    18    22    24   ar
    19    24    29    1
    20    29    30    1
    21    24    25   ar
    22     7     8   ar
    23     8     9   ar
    24     9    15    1
    25    15    16    1
    26     9    10   ar
    27    10    11    1
    28    10     5   ar
    29    25    19   ar
    30    23    26    1
    31    11    12    1
@<TRIPOS>MOLECULE
*****
 30 31 0 0 0
SMALL
GASTEIGER

@<TRIPOS>ATOM
      1 C          61.5042   88.2082   10.1928 C.2     1  UNL1        0.1957
      2 O          60.5097   88.3968    9.0858 O.2     1  UNL1       -0.2866
      3 C          62.7908   89.7436   11.8471 C.2     1  UNL1        0.0035
      4 C          62.5475   89.2547   10.4501 C.2     1  UNL1        0.0420
      5 C          65.4937   91.9626   13.7235 C.ar    1  UNL1        0.1752
      6 C          64.4504   90.9161   13.4662 C.ar    1  UNL1        0.0402
      7 C          63.8342   90.7902   12.1044 C.ar    1  UNL1        0.0063
      8 C          64.2613   91.7109   11.0000 C.ar    1  UNL1        0.0402
      9 C          65.3046   92.7574   11.2573 C.ar    1  UNL1        0.1752
     10 C          65.9208   92.8832   12.6190 C.ar    1  UNL1        0.2024
     11 O          66.9642   93.9298   12.8763 O.3     1  UNL1       -0.5009
     12 H          67.2310   94.5050   12.1864 H       1  UNL1        0.2924
     13 C          67.5568   91.7486   15.2881 C.3     1  UNL1        0.2526
     14 O          66.1099   92.0884   15.0853 O.3     1  UNL1       -0.4683
     15 O          65.7318   93.6781   10.1528 O.3     1  UNL1       -0.4683
     16 C          65.5344   95.1586   10.2920 C.3     1  UNL1        0.2526
     17 C          61.4554   86.9729   11.0424 C.2     1  UNL1        0.0420
     18 C          62.7221   86.2426   11.3775 C.2     1  UNL1        0.0035
     19 C          62.6733   85.0074   12.2271 C.ar    1  UNL1        0.0063
     20 C          62.7021   83.6527   11.5834 C.ar    1  UNL1        0.0402
     21 C          62.6533   82.4175   12.4330 C.ar    1  UNL1        0.1752
     22 C          62.5757   82.5369   13.9263 C.ar    1  UNL1        0.2024
     23 O          62.5269   81.3017   14.7759 O.3     1  UNL1       -0.5009
     24 C          62.5469   83.8915   14.5699 C.ar    1  UNL1        0.1752
     25 C          62.5957   85.1267   13.7203 C.ar    1  UNL1        0.0402
     26 H          62.5448   80.4555   14.3738 H       1  UNL1        0.2924
     27 O          62.6820   81.0629   11.7894 O.3     1  UNL1       -0.4683
     28 C          63.1891   80.9100   10.3860 C.3     1  UNL1        0.2526
     29 O          62.4693   84.0108   16.0631 O.3     1  UNL1       -0.4683
     30 C          62.3355   85.3616   16.7016 C.3     1  UNL1        0.2526
@<TRIPOS>BOND
     1    13    14    1
     2    14     5    1
     3     5     6   ar
     4     6     7   ar
     5     7     3    1
     6     3     4    2
     7     4     1    1
     8     1     2    2
     9     1    17    1
    10    17    18    2
    11    18    19    1
    12    19    20   ar
    13    20    21   ar
    14    21    27    1
    15    27    28    1
    16    21    22   ar
    17    22    23    1
    18    22    24   ar
    19    24    29    1
    20    29    30    1
    21    24    25   ar
    22     7     8   ar
    23     8     9   ar
    24     9    15    1
    25    15    16    1
    26     9    10   ar
    27    10    11    1
    28    10     5   ar
    29    25    19   ar
    30    23    26    1
    31    11    12    1
@<TRIPOS>MOLECULE
*****
 30 31 0 0 0
SMALL
GASTEIGER

@<TRIPOS>ATOM
      1 C          63.1138   87.4410   16.7595 C.2     1  UNL1        0.1957
      2 O          62.9705   87.3558   18.2503 O.2     1  UNL1       -0.2866
      3 C          64.1881   88.7391   14.7820 C.2     1  UNL1        0.0035
      4 C          63.5031   88.7390   16.1165 C.2     1  UNL1        0.0420
      5 C          65.8172   92.3180   14.2452 C.ar    1  UNL1        0.1752
      6 C          65.4278   91.0199   14.8881 C.ar    1  UNL1        0.0402
      7 C          64.5775   90.0372   14.1390 C.ar    1  UNL1        0.0063
      8 C          64.1166   90.3525   12.7469 C.ar    1  UNL1        0.0402
      9 C          64.5059   91.6506   12.1039 C.ar    1  UNL1        0.1752
     10 C          65.3562   92.6333   12.8530 C.ar    1  UNL1        0.2024
     11 O          65.7456   93.9314   12.2100 O.3     1  UNL1       -0.5009
     12 H          65.4576   94.1284   11.3404 H       1  UNL1        0.2924
     13 C          67.6289   92.8171   16.0391 C.3     1  UNL1        0.2526
     14 O          66.6675   93.3007   14.9943 O.3     1  UNL1       -0.4683
     15 O          64.0450   91.9660   10.7117 O.3     1  UNL1       -0.4683
     16 C          62.9346   91.1710   10.0912 C.3     1  UNL1        0.2526
     17 C          62.8677   86.2282   15.9119 C.2     1  UNL1        0.0420
     18 C          64.0257   85.4685   15.3355 C.2     1  UNL1        0.0035
     19 C          63.7796   84.2556   14.4879 C.ar    1  UNL1        0.0063
     20 C          64.4051   84.1512   13.1285 C.ar    1  UNL1        0.0402
     21 C          64.1591   82.9384   12.2808 C.ar    1  UNL1        0.1752
     22 C          63.2875   81.8300   12.7926 C.ar    1  UNL1        0.2024
     23 O          63.0415   80.6171   11.9450 O.3     1  UNL1       -0.5009
     24 C          62.6621   81.9344   14.1520 C.ar    1  UNL1        0.1752
     25 C          62.9081   83.1472   14.9996 C.ar    1  UNL1        0.0402
     26 H          63.4322   80.5519   11.0958 H       1  UNL1        0.2924
     27 O          64.7845   82.8340   10.9215 O.3     1  UNL1       -0.4683
     28 C          64.0822   83.4078    9.7266 C.3     1  UNL1        0.2526
     29 O          61.7906   80.8260   14.6637 O.3     1  UNL1       -0.4683
     30 C          60.3998   80.6570   14.1277 C.3     1  UNL1        0.2526
@<TRIPOS>BOND
     1    13    14    1
     2    14     5    1
     3     5     6   ar
     4     6     7   ar
     5     7     3    1
     6     3     4    2
     7     4     1    1
     8     1     2    2
     9     1    17    1
    10    17    18    2
    11    18    19    1
    12    19    20   ar
    13    20    21   ar
    14    21    27    1
    15    27    28    1
    16    21    22   ar
    17    22    23    1
    18    22    24   ar
    19    24    29    1
    20    29    30    1
    21    24    25   ar
    22     7     8   ar
    23     8     9   ar
    24     9    15    1
    25    15    16    1
    26     9    10   ar
    27    10    11    1
    28    10     5   ar
    29    25    19   ar
    30    23    26    1
    31    11    12    1
@<TRIPOS>MOLECULE
*****
 30 31 0 0 0
SMALL
GASTEIGER

@<TRIPOS>ATOM
      1 C          63.1091   87.3420   16.8218 C.2     1  UNL1        0.1957
      2 O          62.9525   87.2584   18.3114 O.2     1  UNL1       -0.2866
      3 C          64.1306   88.6376   14.8149 C.2     1  UNL1        0.0035
      4 C          63.5124   88.6371   16.1816 C.2     1  UNL1        0.0420
      5 C          64.4372   91.5744   12.1633 C.ar    1  UNL1        0.1752
      6 C          64.0340   90.2793   12.8035 C.ar    1  UNL1        0.0402
      7 C          64.5339   89.9329   14.1747 C.ar    1  UNL1        0.0063
      8 C          65.4370   90.8816   14.9056 C.ar    1  UNL1        0.0402
      9 C          65.8402   92.1767   14.2653 C.ar    1  UNL1        0.1752
     10 C          65.3403   92.5231   12.8942 C.ar    1  UNL1        0.2024
     11 O          65.7436   93.8184   12.2539 O.3     1  UNL1       -0.5009
     12 H          66.3078   94.4110   12.7105 H       1  UNL1        0.2924
     13 C          62.9235   91.0435   10.1196 C.3     1  UNL1        0.2526
     14 O          63.9373   91.9208   10.7921 O.3     1  UNL1       -0.4683
     15 O          66.7434   93.1255   14.9963 O.3     1  UNL1       -0.4683
     16 C          68.2040   92.8137   15.1353 C.3     1  UNL1        0.2526
     17 C          62.8624   86.1304   15.9727 C.2     1  UNL1        0.0420
     18 C          64.0184   85.3920   15.3655 C.2     1  UNL1        0.0035
     19 C          63.7716   84.1804   14.5163 C.ar    1  UNL1        0.0063
     20 C          62.8806   83.0824   15.0169 C.ar    1  UNL1        0.0402
     21 C          62.6339   81.8708   14.1678 C.ar    1  UNL1        0.1752
     22 C          63.2782   81.7572   12.8179 C.ar    1  UNL1        0.2024
     23 O          63.0315   80.5456   11.9687 O.3     1  UNL1       -0.5009
     24 C          64.1692   82.8551   12.3173 C.ar    1  UNL1        0.1752
     25 C          64.4159   84.0667   13.1665 C.ar    1  UNL1        0.0402
     26 H          62.4749   79.8597   12.2814 H       1  UNL1        0.2924
     27 O          61.7429   80.7729   14.6684 O.3     1  UNL1       -0.4683
     28 C          60.3500   80.6328   14.1295 C.3     1  UNL1        0.2526
     29 O          64.8134   82.7414   10.9675 O.3     1  UNL1       -0.4683
     30 C          64.1235   83.2987    9.7578 C.3     1  UNL1        0.2526
@<TRIPOS>BOND
     1    13    14    1
     2    14     5    1
     3     5     6   ar
     4     6     7   ar
     5     7     3    1
     6     3     4    2
     7     4     1    1
     8     1     2    2
     9     1    17    1
    10    17    18    2
    11    18    19    1
    12    19    20   ar
    13    20    21   ar
    14    21    27    1
    15    27    28    1
    16    21    22   ar
    17    22    23    1
    18    22    24   ar
    19    24    29    1
    20    29    30    1
    21    24    25   ar
    22     7     8   ar
    23     8     9   ar
    24     9    15    1
    25    15    16    1
    26     9    10   ar
    27    10    11    1
    28    10     5   ar
    29    25    19   ar
    30    23    26    1
    31    11    12    1
