@<TRIPOS>MOLECULE
*****
 62 69 0 0 0
SMALL
GASTEIGER

@<TRIPOS>ATOM
      1 N          65.3891   89.2118   14.5492 N.3     1  UNL1       -0.1862
      2 C          65.5842   87.9584   15.3499 C.3     1  UNL1        0.1775
      3 C          64.8184   86.7173   14.9988 C.2     1  UNL1        0.2452
      4 O          65.0135   85.4640   15.7995 O.2     1  UNL1       -0.2732
      5 N          63.8575   86.7296   13.8471 N.am    1  UNL1       -0.2541
      6 C          63.0918   85.4885   13.4960 C.3     1  UNL1        0.1577
      7 C          62.1309   85.5007   12.3442 C.2     1  UNL1        0.2445
      8 O          61.3651   84.2596   11.9932 O.2     1  UNL1       -0.2731
      9 N          61.9358   86.7541   11.5435 N.am    1  UNL1       -0.2705
     10 C          62.7016   87.9951   11.8946 C.3     1  UNL1        0.1359
     11 C          63.6625   87.9829   13.0464 C.3     1  UNL1        0.1908
     12 N          64.4282   89.2240   13.3975 N.am    1  UNL1       -0.1863
     13 C          64.2331   90.4773   12.5968 C.2     1  UNL1        0.3191
     14 O          63.2722   90.4896   11.4451 O.2     1  UNL1       -0.2512
     15 N          64.9989   91.7184   12.9479 N.am    1  UNL1       -0.2836
     16 H          65.6295   91.7104   13.7038 H       1  UNL1        0.1513
     17 C          66.1549   90.4529   14.9003 C.3     1  UNL1        0.1188
     18 C          66.2739   92.7650   16.0791 C.2     1  UNL1       -0.0034
     19 C          65.5172   91.5127   15.7488 C.2     1  UNL1       -0.0071
     20 C          63.2869   84.2351   14.2966 C.3     1  UNL1        0.0556
     21 C          63.1086   82.8949   13.6471 C.ar    1  UNL1       -0.0198
     22 C          62.1372   81.9065   14.2210 C.ar    1  UNL1       -0.0011
     23 C          61.9590   80.5662   13.5715 C.ar    1  UNL1        0.0363
     24 C          62.7522   80.2143   12.3481 C.ar    1  UNL1        0.1337
     25 O          62.5740   78.8740   11.6985 O.3     1  UNL1       -0.5055
     26 C          63.7237   81.2027   11.7740 C.ar    1  UNL1        0.0363
     27 C          63.9019   82.5430   12.4236 C.ar    1  UNL1       -0.0011
     28 H          61.9672   78.2566   12.0571 H       1  UNL1        0.2922
     29 C          60.9749   86.7663   10.3918 C.3     1  UNL1        0.1217
     30 C          60.4387   88.0689    9.8761 C.ar    1  UNL1        0.0135
     31 C          60.2382   89.2216   10.8148 C.ar    1  UNL1       -0.0012
     32 C          59.7020   90.5241   10.2992 C.ar    1  UNL1       -0.0002
     33 C          59.3664   90.6740    8.8450 C.ar    1  UNL1        0.0016
     34 C          59.5669   89.5212    7.9063 C.ar    1  UNL1        0.0214
     35 C          59.3271   89.3731    6.4330 C.ar    1  UNL1        0.0721
     36 C          59.7150   87.9790    6.0381 C.ar    1  UNL1        0.0805
     37 N          60.1946   87.2656    7.2673 N.ar    1  UNL1       -0.3241
     38 C          60.6804   85.8479    7.3308 C.3     1  UNL1        0.1305
     39 C          60.1031   88.2187    8.4219 C.ar    1  UNL1        0.0577
     40 C          58.7930   90.4331    5.5157 C.2     1  UNL1        0.2506
     41 O          57.3297   90.7627    5.5221 O.2     1  UNL1       -0.2699
     42 N          59.7223   91.1633    4.5920 N.am    1  UNL1       -0.2732
     43 C          61.1856   90.8335    4.5856 C.3     1  UNL1        0.1110
     44 C          62.1149   91.5637    3.6619 C.3     1  UNL1        0.0939
     45 N          61.5809   92.6237    2.7446 N.3     1  UNL1       -0.2686
     46 C          62.5102   93.3539    1.8209 C.3     1  UNL1        0.0897
     47 C          61.9762   94.4138    0.9036 C.3     1  UNL1        0.0897
     48 N          60.5128   94.7434    0.9100 N.3     1  UNL1       -0.2703
     49 C          59.5836   94.0132    1.8337 C.3     1  UNL1        0.0900
     50 C          60.1176   92.9534    2.7510 C.3     1  UNL1        0.0936
     51 C          59.1883   92.2231    3.6747 C.3     1  UNL1        0.1110
     52 C          59.9789   95.8033   -0.0073 C.3     1  UNL1        0.0721
     53 C          58.9847   95.4430   -1.0711 C.3     1  UNL1        0.0160
     54 C          59.3583   94.4669   -2.1472 C.3     1  UNL1        0.0014
     55 C          57.6170   96.0589   -1.0591 C.3     1  UNL1        0.0014
     56 C          64.8038   92.9718   12.1472 C.3     1  UNL1        0.1177
     57 C          65.8488   93.4020   11.1609 C.ar    1  UNL1       -0.0025
     58 C          66.8383   92.4054   10.6340 C.ar    1  UNL1       -0.0026
     59 C          67.8833   92.8356    9.6477 C.ar    1  UNL1       -0.0003
     60 C          67.9389   94.2624    9.1883 C.ar    1  UNL1       -0.0000
     61 C          66.9494   95.2591    9.7152 C.ar    1  UNL1       -0.0003
     62 C          65.9043   94.8289   10.7015 C.ar    1  UNL1       -0.0026
@<TRIPOS>BOND
     1    18    19    2
     2    19    17    1
     3    17     1    1
     4     1     2    1
     5     2     3    1
     6     3     4    2
     7     3     5   am
     8     5     6    1
     9     6    20    1
    10    20    21    1
    11    21    22   ar
    12    22    23   ar
    13    23    24   ar
    14    24    25    1
    15    24    26   ar
    16    26    27   ar
    17     6     7    1
    18     7     8    2
    19     7     9   am
    20     9    29    1
    21    29    30    1
    22    30    31   ar
    23    31    32   ar
    24    32    33   ar
    25    33    34   ar
    26    34    35   ar
    27    35    40    1
    28    40    41    2
    29    40    42   am
    30    42    43    1
    31    43    44    1
    32    44    45    1
    33    45    46    1
    34    46    47    1
    35    47    48    1
    36    48    52    1
    37    52    53    1
    38    53    54    1
    39    53    55    1
    40    48    49    1
    41    49    50    1
    42    50    51    1
    43    35    36   ar
    44    36    37   ar
    45    37    38    1
    46    37    39   ar
    47     9    10    1
    48    11    10    1
    49    11    12    1
    50    12    13   am
    51    13    14    2
    52    13    15   am
    53    15    56    1
    54    56    57    1
    55    57    58   ar
    56    58    59   ar
    57    59    60   ar
    58    60    61   ar
    59    61    62   ar
    60    12     1    1
    61    62    57   ar
    62    11     5    1
    63    27    21   ar
    64    39    30   ar
    65    39    34   ar
    66    51    42    1
    67    50    45    1
    68    25    28    1
    69    15    16    1
@<TRIPOS>MOLECULE
*****
 62 69 0 0 0
SMALL
GASTEIGER

@<TRIPOS>ATOM
      1 N          59.0910   94.4054   -5.8622 N.3     1  UNL1       -0.1862
      2 C          60.1847   94.3140   -6.8847 C.3     1  UNL1        0.1775
      3 C          61.5769   94.7489   -6.5346 C.2     1  UNL1        0.2452
      4 O          62.6706   94.6575   -7.5572 O.2     1  UNL1       -0.2732
      5 N          61.8755   95.2753   -5.1622 N.am    1  UNL1       -0.2541
      6 C          63.2677   95.7102   -4.8121 C.3     1  UNL1        0.1577
      7 C          63.5663   96.2365   -3.4396 C.2     1  UNL1        0.2445
      8 O          64.9585   96.6714   -3.0896 O.2     1  UNL1       -0.2731
      9 N          62.4726   96.3279   -2.4171 N.am    1  UNL1       -0.2705
     10 C          61.0803   95.8930   -2.7671 C.3     1  UNL1        0.1359
     11 C          60.7818   95.3667   -4.1397 C.3     1  UNL1        0.1908
     12 N          59.3896   94.9318   -4.4897 N.am    1  UNL1       -0.1863
     13 C          58.2959   95.0232   -3.4672 C.2     1  UNL1        0.3191
     14 O          58.5944   95.5495   -2.0947 O.2     1  UNL1       -0.2512
     15 N          56.9036   94.5883   -3.8172 N.am    1  UNL1       -0.2836
     16 H          56.7077   94.2428   -4.7181 H       1  UNL1        0.1513
     17 C          57.6988   93.9705   -6.2123 C.3     1  UNL1        0.1188
     18 C          56.1221   92.1194   -7.1272 C.2     1  UNL1       -0.0034
     19 C          57.4074   92.5213   -6.4666 C.2     1  UNL1       -0.0071
     20 C          64.3614   95.6188   -5.8346 C.3     1  UNL1        0.0556
     21 C          64.9022   94.2786   -6.2366 C.ar    1  UNL1       -0.0198
     22 C          66.0895   94.1920   -7.1492 C.ar    1  UNL1       -0.0011
     23 C          66.6303   92.8519   -7.5512 C.ar    1  UNL1        0.0363
     24 C          65.9838   91.5984   -7.0406 C.ar    1  UNL1        0.1337
     25 O          66.5246   90.2583   -7.4426 O.3     1  UNL1       -0.5055
     26 C          64.7964   91.6849   -6.1280 C.ar    1  UNL1        0.0363
     27 C          64.2556   93.0251   -5.7260 C.ar    1  UNL1       -0.0011
     28 H          67.2662   90.2042   -8.0127 H       1  UNL1        0.2922
     29 C          62.7711   96.8543   -1.0446 C.3     1  UNL1        0.1217
     30 C          63.3892   95.9556   -0.0147 C.ar    1  UNL1        0.0135
     31 C          64.8508   96.0720    0.3020 C.ar    1  UNL1       -0.0012
     32 C          65.4689   95.1735    1.3318 C.ar    1  UNL1       -0.0002
     33 C          64.6254   94.1585    2.0448 C.ar    1  UNL1        0.0016
     34 C          63.1639   94.0422    1.7281 C.ar    1  UNL1        0.0214
     35 C          62.0892   93.1433    2.2639 C.ar    1  UNL1        0.0721
     36 C          60.8070   93.4863    1.5653 C.ar    1  UNL1        0.0805
     37 N          61.0891   94.5972    0.5977 N.ar    1  UNL1       -0.3241
     38 C          60.0901   95.2499   -0.3110 C.3     1  UNL1        0.1305
     39 C          62.5458   94.9407    0.6983 C.ar    1  UNL1        0.0577
     40 C          62.2659   92.0868    3.3141 C.2     1  UNL1        0.2506
     41 O          63.6329   91.5451    3.6105 O.2     1  UNL1       -0.2699
     42 N          61.0755   91.5721    4.0678 N.am    1  UNL1       -0.2732
     43 C          59.7085   92.1138    3.7713 C.3     1  UNL1        0.1110
     44 C          58.5181   91.5991    4.5250 C.3     1  UNL1        0.0939
     45 N          58.6946   90.5426    5.5751 N.3     1  UNL1       -0.2686
     46 C          57.5043   90.0279    6.3288 C.3     1  UNL1        0.0897
     47 C          57.6809   88.9715    7.3789 C.3     1  UNL1        0.0897
     48 N          59.0479   88.4298    7.6754 N.3     1  UNL1       -0.2703
     49 C          60.2383   88.9445    6.9217 C.3     1  UNL1        0.0900
     50 C          60.0617   90.0009    5.8716 C.3     1  UNL1        0.0936
     51 C          61.2520   90.5156    5.1179 C.3     1  UNL1        0.1110
     52 C          59.2245   87.3734    8.7255 C.3     1  UNL1        0.0721
     53 C          60.5893   87.0847    9.2768 C.3     1  UNL1        0.0160
     54 C          61.4948   86.1195    8.5705 C.3     1  UNL1        0.0014
     55 C          61.0487   87.7611   10.5343 C.3     1  UNL1        0.0014
     56 C          55.8100   94.6797   -2.7948 C.3     1  UNL1        0.1177
     57 C          54.5370   95.4031   -3.1208 C.ar    1  UNL1       -0.0025
     58 C          54.1211   95.5821   -4.5508 C.ar    1  UNL1       -0.0026
     59 C          52.8482   96.3055   -4.8768 C.ar    1  UNL1       -0.0003
     60 C          51.9911   96.8500   -3.7727 C.ar    1  UNL1       -0.0000
     61 C          52.4070   96.6711   -2.3426 C.ar    1  UNL1       -0.0003
     62 C          53.6799   95.9477   -2.0166 C.ar    1  UNL1       -0.0026
@<TRIPOS>BOND
     1    18    19    2
     2    19    17    1
     3    17     1    1
     4     1     2    1
     5     2     3    1
     6     3     4    2
     7     3     5   am
     8     5     6    1
     9     6    20    1
    10    20    21    1
    11    21    22   ar
    12    22    23   ar
    13    23    24   ar
    14    24    25    1
    15    24    26   ar
    16    26    27   ar
    17     6     7    1
    18     7     8    2
    19     7     9   am
    20     9    29    1
    21    29    30    1
    22    30    31   ar
    23    31    32   ar
    24    32    33   ar
    25    33    34   ar
    26    34    35   ar
    27    35    40    1
    28    40    41    2
    29    40    42   am
    30    42    43    1
    31    43    44    1
    32    44    45    1
    33    45    46    1
    34    46    47    1
    35    47    48    1
    36    48    52    1
    37    52    53    1
    38    53    54    1
    39    53    55    1
    40    48    49    1
    41    49    50    1
    42    50    51    1
    43    35    36   ar
    44    36    37   ar
    45    37    38    1
    46    37    39   ar
    47     9    10    1
    48    11    10    1
    49    11    12    1
    50    12    13   am
    51    13    14    2
    52    13    15   am
    53    15    56    1
    54    56    57    1
    55    57    58   ar
    56    58    59   ar
    57    59    60   ar
    58    60    61   ar
    59    61    62   ar
    60    12     1    1
    61    62    57   ar
    62    11     5    1
    63    27    21   ar
    64    39    30   ar
    65    39    34   ar
    66    51    42    1
    67    50    45    1
    68    25    28    1
    69    15    16    1
