@<TRIPOS>MOLECULE
*****
 35 38 0 0 0
SMALL
GASTEIGER

@<TRIPOS>ATOM
      1 N          64.6591   89.7119   13.4324 N.pl3   1  UNL1       -0.3069
      2 C          63.8397   89.9806   12.2050 C.3     1  UNL1        0.0925
      3 C          62.9967   88.8905   11.6126 C.3     1  UNL1        0.0415
      4 C          62.9730   87.5317   12.2476 C.3     1  UNL1        0.0807
      5 C          63.7923   87.2630   13.4750 C.3     1  UNL1        0.0415
      6 C          64.6354   88.3532   14.0674 C.3     1  UNL1        0.0925
      7 C          65.1594   91.3675   15.3712 C.ar    1  UNL1        0.0817
      8 C          66.0025   92.4576   15.9635 C.ar    1  UNL1        0.0154
      9 C          67.1882   92.9824   15.2094 C.ar    1  UNL1        0.0722
     10 C          67.5309   92.4170   13.8630 C.ar    1  UNL1        0.0052
     11 C          66.6879   91.3269   13.2707 C.ar    1  UNL1        0.0151
     12 C          65.5021   90.8021   14.0248 C.ar    1  UNL1        0.0575
     13 C          68.0313   94.0725   15.8017 C.3     1  UNL1        0.4186
     14 F          68.8743   95.1626   16.3941 F       1  UNL1       -0.1659
     15 F          68.6581   93.0802   16.7357 F       1  UNL1       -0.1659
     16 F          67.4045   95.0648   14.8678 F       1  UNL1       -0.1659
     17 N          62.7879   90.3181   16.8794 N.1     1  UNL1       -0.1908
     18 C          63.9737   90.8428   16.1253 C.1     1  UNL1        0.1017
     19 N          62.1299   86.4416   11.6553 N.pl3   1  UNL1       -0.2872
     20 C          62.2675   85.0330   12.1523 C.ar    1  UNL1        0.0515
     21 C          62.6281   83.9330   11.1985 C.ar    1  UNL1        0.0148
     22 C          62.7657   82.5244   11.6956 C.ar    1  UNL1        0.0051
     23 C          62.5427   82.2160   13.1464 C.ar    1  UNL1        0.0715
     24 C          62.1821   83.3160   14.1002 C.ar    1  UNL1        0.0051
     25 C          62.0445   84.7246   13.6032 C.ar    1  UNL1        0.0148
     26 C          62.6803   80.8074   13.6435 C.3     1  UNL1        0.4186
     27 F          62.8179   79.3989   14.1405 F       1  UNL1       -0.1659
     28 F          64.1642   80.8794   13.4368 F       1  UNL1       -0.1659
     29 F          61.1963   80.7354   13.8502 F       1  UNL1       -0.1659
     30 C          61.1493   86.7601   10.5658 C.ar    1  UNL1        0.0710
     31 C          61.2090   86.0192    9.2629 C.ar    1  UNL1        0.0180
     32 C          60.2284   86.3377    8.1734 C.ar    1  UNL1        0.0220
     33 C          59.1880   87.3970    8.3869 C.ar    1  UNL1        0.0990
     34 N          59.1283   88.1378    9.6898 N.ar    1  UNL1       -0.2410
     35 C          60.1090   87.8194   10.7793 C.ar    1  UNL1        0.1136
@<TRIPOS>BOND
     1    17    18    3
     2    18     7    1
     3     7     8   ar
     4     8     9   ar
     5     9    13    1
     6    13    14    1
     7    13    15    1
     8    13    16    1
     9     9    10   ar
    10    10    11   ar
    11    11    12   ar
    12    12     1    1
    13     1     2    1
    14     2     3    1
    15     3     4    1
    16     4    19    1
    17    19    20    1
    18    20    21   ar
    19    21    22   ar
    20    22    23   ar
    21    23    26    1
    22    26    27    1
    23    26    28    1
    24    26    29    1
    25    23    24   ar
    26    24    25   ar
    27    19    30    1
    28    30    31   ar
    29    31    32   ar
    30    32    33   ar
    31    33    34   ar
    32    34    35   ar
    33     4     5    1
    34     5     6    1
    35    12     7   ar
    36     6     1    1
    37    25    20   ar
    38    35    30   ar
@<TRIPOS>MOLECULE
*****
 35 38 0 0 0
SMALL
GASTEIGER

@<TRIPOS>ATOM
      1 N          63.6654   86.3205   13.5957 N.pl3   1  UNL1       -0.3069
      2 C          63.1720   87.3015   12.5739 C.3     1  UNL1        0.0925
      3 C          63.5760   88.7433   12.6621 C.3     1  UNL1        0.0415
      4 C          64.4735   89.2042   13.7722 C.3     1  UNL1        0.0807
      5 C          64.9669   88.2232   14.7940 C.3     1  UNL1        0.0415
      6 C          64.5629   86.7813   14.7057 C.3     1  UNL1        0.0925
      7 C          62.5667   84.2222   14.6636 C.ar    1  UNL1        0.0817
      8 C          62.1627   82.7804   14.5753 C.ar    1  UNL1        0.0154
      9 C          62.4534   81.9949   13.3309 C.ar    1  UNL1        0.0722
     10 C          63.1480   82.6512   12.1748 C.ar    1  UNL1        0.0052
     11 C          63.5520   84.0931   12.2631 C.ar    1  UNL1        0.0151
     12 C          63.2614   84.8786   13.5075 C.ar    1  UNL1        0.0575
     13 C          62.0493   80.5530   13.2426 C.3     1  UNL1        0.4186
     14 F          61.6452   79.1112   13.1544 F       1  UNL1       -0.1659
     15 F          60.9557   80.7985   14.2394 F       1  UNL1       -0.1659
     16 F          63.1429   80.3075   12.2458 F       1  UNL1       -0.1659
     17 N          61.9854   85.7932   17.1523 N.1     1  UNL1       -0.1908
     18 C          62.2760   85.0077   15.9079 C.1     1  UNL1        0.1017
     19 N          64.8775   90.6461   13.8604 N.pl3   1  UNL1       -0.2872
     20 C          65.4609   91.3361   12.6631 C.ar    1  UNL1        0.0515
     21 C          66.9379   91.5868   12.5877 C.ar    1  UNL1        0.0148
     22 C          67.5213   92.2768   11.3904 C.ar    1  UNL1        0.0051
     23 C          66.6278   92.7161   10.2686 C.ar    1  UNL1        0.0715
     24 C          65.1509   92.4654   10.3440 C.ar    1  UNL1        0.0051
     25 C          64.5674   91.7754   11.5412 C.ar    1  UNL1        0.0148
     26 C          67.2113   93.4061    9.0713 C.3     1  UNL1        0.4186
     27 F          67.7947   94.0962    7.8740 F       1  UNL1       -0.1659
     28 F          66.3046   94.5780    9.3048 F       1  UNL1       -0.1659
     29 F          68.1180   92.2342    8.8378 F       1  UNL1       -0.1659
     30 C          64.6980   91.3979   15.1459 C.ar    1  UNL1        0.0710
     31 C          65.8294   92.2090   15.7046 C.ar    1  UNL1        0.0180
     32 C          65.6500   92.9608   16.9901 C.ar    1  UNL1        0.0220
     33 C          64.3392   92.9016   17.7169 C.ar    1  UNL1        0.0990
     34 N          63.2078   92.0906   17.1582 N.ar    1  UNL1       -0.2410
     35 C          63.3872   91.3387   15.8727 C.ar    1  UNL1        0.1136
@<TRIPOS>BOND
     1    17    18    3
     2    18     7    1
     3     7     8   ar
     4     8     9   ar
     5     9    13    1
     6    13    14    1
     7    13    15    1
     8    13    16    1
     9     9    10   ar
    10    10    11   ar
    11    11    12   ar
    12    12     1    1
    13     1     2    1
    14     2     3    1
    15     3     4    1
    16     4    19    1
    17    19    20    1
    18    20    21   ar
    19    21    22   ar
    20    22    23   ar
    21    23    26    1
    22    26    27    1
    23    26    28    1
    24    26    29    1
    25    23    24   ar
    26    24    25   ar
    27    19    30    1
    28    30    31   ar
    29    31    32   ar
    30    32    33   ar
    31    33    34   ar
    32    34    35   ar
    33     4     5    1
    34     5     6    1
    35    12     7   ar
    36     6     1    1
    37    25    20   ar
    38    35    30   ar
@<TRIPOS>MOLECULE
*****
 35 38 0 0 0
SMALL
GASTEIGER

@<TRIPOS>ATOM
      1 N          60.8393   87.1565    9.3391 N.pl3   1  UNL1       -0.3069
      2 C          60.6013   87.3429   10.8084 C.3     1  UNL1        0.0925
      3 C          61.1737   86.3646   11.7908 C.3     1  UNL1        0.0415
      4 C          61.9841   85.1999   11.3041 C.3     1  UNL1        0.0807
      5 C          62.2221   85.0136    9.8349 C.3     1  UNL1        0.0415
      6 C          61.6496   85.9919    8.8524 C.3     1  UNL1        0.0925
      7 C          60.5728   89.5973    8.4895 C.ar    1  UNL1        0.0817
      8 C          60.0004   90.5756    7.5071 C.ar    1  UNL1        0.0154
      9 C          59.1220   90.0914    6.3917 C.ar    1  UNL1        0.0722
     10 C          58.8160   88.6290    6.2588 C.ar    1  UNL1        0.0052
     11 C          59.3884   87.6508    7.2413 C.ar    1  UNL1        0.0151
     12 C          60.2668   88.1349    8.3566 C.ar    1  UNL1        0.0575
     13 C          58.5495   91.0698    5.4092 C.3     1  UNL1        0.4186
     14 F          57.9771   92.0481    4.4268 F       1  UNL1       -0.1659
     15 F          57.1680   90.5778    5.7243 F       1  UNL1       -0.1659
     16 F          59.9310   91.5618    5.0941 F       1  UNL1       -0.1659
     17 N          62.3296   90.5656   10.7202 N.1     1  UNL1       -0.1908
     18 C          61.4512   90.0814    9.6049 C.1     1  UNL1        0.1017
     19 N          62.5565   84.2216   12.2866 N.pl3   1  UNL1       -0.2872
     20 C          62.6720   82.7716   11.9205 C.ar    1  UNL1        0.0515
     21 C          63.2179   82.3777   10.5800 C.ar    1  UNL1        0.0148
     22 C          63.3334   80.9276   10.2139 C.ar    1  UNL1        0.0051
     23 C          62.9031   79.8715   11.1883 C.ar    1  UNL1        0.0715
     24 C          62.3573   80.2654   12.5287 C.ar    1  UNL1        0.0051
     25 C          62.2417   81.7155   12.8948 C.ar    1  UNL1        0.0148
     26 C          63.0187   78.4215   10.8222 C.3     1  UNL1        0.4186
     27 F          63.1342   76.9714   10.4561 F       1  UNL1       -0.1659
     28 F          63.2699   78.8023    9.3932 F       1  UNL1       -0.1659
     29 F          62.7674   78.0407   12.2511 F       1  UNL1       -0.1659
     30 C          63.0133   84.6934   13.6351 C.ar    1  UNL1        0.0710
     31 C          64.3564   85.3440   13.7868 C.ar    1  UNL1        0.0180
     32 C          64.8132   85.8158   15.1354 C.ar    1  UNL1        0.0220
     33 C          63.9271   85.6370   16.3323 C.ar    1  UNL1        0.0990
     34 N          62.5840   84.9864   16.1807 N.ar    1  UNL1       -0.2410
     35 C          62.1271   84.5146   14.8321 C.ar    1  UNL1        0.1136
@<TRIPOS>BOND
     1    17    18    3
     2    18     7    1
     3     7     8   ar
     4     8     9   ar
     5     9    13    1
     6    13    14    1
     7    13    15    1
     8    13    16    1
     9     9    10   ar
    10    10    11   ar
    11    11    12   ar
    12    12     1    1
    13     1     2    1
    14     2     3    1
    15     3     4    1
    16     4    19    1
    17    19    20    1
    18    20    21   ar
    19    21    22   ar
    20    22    23   ar
    21    23    26    1
    22    26    27    1
    23    26    28    1
    24    26    29    1
    25    23    24   ar
    26    24    25   ar
    27    19    30    1
    28    30    31   ar
    29    31    32   ar
    30    32    33   ar
    31    33    34   ar
    32    34    35   ar
    33     4     5    1
    34     5     6    1
    35    12     7   ar
    36     6     1    1
    37    25    20   ar
    38    35    30   ar
@<TRIPOS>MOLECULE
*****
 35 38 0 0 0
SMALL
GASTEIGER

@<TRIPOS>ATOM
      1 N          62.7333   84.4993   11.6683 N.pl3   1  UNL1       -0.3069
      2 C          61.8986   85.3586   10.7655 C.3     1  UNL1        0.0925
      3 C          61.8068   86.8356   11.0100 C.3     1  UNL1        0.0415
      4 C          62.5496   87.4535   12.1574 C.3     1  UNL1        0.0807
      5 C          63.3843   86.5943   13.0602 C.3     1  UNL1        0.0415
      6 C          63.4761   85.1172   12.8157 C.3     1  UNL1        0.0925
      7 C          62.5885   82.0595   12.5494 C.ar    1  UNL1        0.0817
      8 C          62.6804   80.5825   12.3048 C.ar    1  UNL1        0.0154
      9 C          63.0087   80.0681   10.9345 C.ar    1  UNL1        0.0722
     10 C          63.2453   81.0309    9.8089 C.ar    1  UNL1        0.0052
     11 C          63.1535   82.5079   10.0535 C.ar    1  UNL1        0.0151
     12 C          62.8251   83.0222   11.4237 C.ar    1  UNL1        0.0575
     13 C          63.1005   78.5910   10.6899 C.3     1  UNL1        0.4186
     14 F          63.1923   77.1140   10.4454 F       1  UNL1       -0.1659
     15 F          62.6920   78.3306   12.1095 F       1  UNL1       -0.1659
     16 F          63.5091   78.8514    9.2704 F       1  UNL1       -0.1659
     17 N          61.9318   83.0881   15.2899 N.1     1  UNL1       -0.1908
     18 C          62.2602   82.5738   13.9197 C.1     1  UNL1        0.1017
     19 N          62.4578   88.9306   12.4019 N.pl3   1  UNL1       -0.2872
     20 C          63.6327   89.6715   12.9681 C.ar    1  UNL1        0.0515
     21 C          64.2356   89.2380   14.2713 C.ar    1  UNL1        0.0148
     22 C          65.4105   89.9790   14.8375 C.ar    1  UNL1        0.0051
     23 C          65.9825   91.1535   14.1005 C.ar    1  UNL1        0.0715
     24 C          65.3795   91.5870   12.7972 C.ar    1  UNL1        0.0051
     25 C          64.2046   90.8461   12.2311 C.ar    1  UNL1        0.0148
     26 C          67.1574   91.8945   14.6667 C.3     1  UNL1        0.4186
     27 F          68.3323   92.6355   15.2329 F       1  UNL1       -0.1659
     28 F          67.9445   91.5948   13.4255 F       1  UNL1       -0.1659
     29 F          66.3702   92.1942   15.9079 F       1  UNL1       -0.1659
     30 C          61.1910   89.6666   12.0803 C.ar    1  UNL1        0.0710
     31 C          59.9217   89.3268   12.8038 C.ar    1  UNL1        0.0180
     32 C          58.6550   90.0629   12.4821 C.ar    1  UNL1        0.0220
     33 C          58.6574   91.1388   11.4369 C.ar    1  UNL1        0.0990
     34 N          59.9267   91.4786   10.7134 N.ar    1  UNL1       -0.2410
     35 C          61.1935   90.7425   11.0350 C.ar    1  UNL1        0.1136
@<TRIPOS>BOND
     1    17    18    3
     2    18     7    1
     3     7     8   ar
     4     8     9   ar
     5     9    13    1
     6    13    14    1
     7    13    15    1
     8    13    16    1
     9     9    10   ar
    10    10    11   ar
    11    11    12   ar
    12    12     1    1
    13     1     2    1
    14     2     3    1
    15     3     4    1
    16     4    19    1
    17    19    20    1
    18    20    21   ar
    19    21    22   ar
    20    22    23   ar
    21    23    26    1
    22    26    27    1
    23    26    28    1
    24    26    29    1
    25    23    24   ar
    26    24    25   ar
    27    19    30    1
    28    30    31   ar
    29    31    32   ar
    30    32    33   ar
    31    33    34   ar
    32    34    35   ar
    33     4     5    1
    34     5     6    1
    35    12     7   ar
    36     6     1    1
    37    25    20   ar
    38    35    30   ar
@<TRIPOS>MOLECULE
*****
 35 38 0 0 0
SMALL
GASTEIGER

@<TRIPOS>ATOM
      1 N          63.6621   86.3802   13.5352 N.pl3   1  UNL1       -0.3069
      2 C          64.5458   86.8377   14.6575 C.3     1  UNL1        0.0925
      3 C          64.9501   88.2789   14.7541 C.3     1  UNL1        0.0415
      4 C          64.4705   89.2627   13.7284 C.3     1  UNL1        0.0807
      5 C          63.5867   88.8053   12.6060 C.3     1  UNL1        0.0415
      6 C          63.1825   87.3639   12.5095 C.3     1  UNL1        0.0925
      7 C          62.7344   84.3918   12.1438 C.ar    1  UNL1        0.0817
      8 C          62.3302   82.9506   12.0473 C.ar    1  UNL1        0.0154
      9 C          62.4495   82.0563   13.2456 C.ar    1  UNL1        0.0722
     10 C          62.9730   82.6033   14.5405 C.ar    1  UNL1        0.0052
     11 C          63.3771   84.0446   14.6370 C.ar    1  UNL1        0.0151
     12 C          63.2579   84.9388   13.4386 C.ar    1  UNL1        0.0575
     13 C          62.0453   80.6150   13.1491 C.3     1  UNL1        0.4186
     14 F          61.6411   79.1737   13.0526 F       1  UNL1       -0.1659
     15 F          61.0530   80.8192   14.2552 F       1  UNL1       -0.1659
     16 F          63.0376   80.4107   12.0429 F       1  UNL1       -0.1659
     17 N          62.4958   86.1804    9.7471 N.1     1  UNL1       -0.1908
     18 C          62.6151   85.2861   10.9454 C.1     1  UNL1        0.1017
     19 N          64.8747   90.7040   13.8250 N.pl3   1  UNL1       -0.2872
     20 C          65.4439   91.4052   12.6273 C.ar    1  UNL1        0.0515
     21 C          66.9207   91.6510   12.5338 C.ar    1  UNL1        0.0148
     22 C          67.4899   92.3522   11.3361 C.ar    1  UNL1        0.0051
     23 C          66.5824   92.8076   10.2321 C.ar    1  UNL1        0.0715
     24 C          65.1057   92.5618   10.3256 C.ar    1  UNL1        0.0051
     25 C          64.5364   91.8606   11.5233 C.ar    1  UNL1        0.0148
     26 C          67.1516   93.5088    9.0345 C.3     1  UNL1        0.4186
     27 F          67.7208   94.2100    7.8368 F       1  UNL1       -0.1659
     28 F          68.0725   92.3495    8.7934 F       1  UNL1       -0.1659
     29 F          66.2307   94.6680    9.2755 F       1  UNL1       -0.1659
     30 C          64.7097   91.4440   15.1192 C.ar    1  UNL1        0.0710
     31 C          65.8562   92.2273   15.6868 C.ar    1  UNL1        0.0180
     32 C          65.6912   92.9673   16.9810 C.ar    1  UNL1        0.0220
     33 C          64.3797   92.9242   17.7077 C.ar    1  UNL1        0.0990
     34 N          63.2332   92.1410   17.1402 N.ar    1  UNL1       -0.2410
     35 C          63.3982   91.4009   15.8459 C.ar    1  UNL1        0.1136
@<TRIPOS>BOND
     1    17    18    3
     2    18     7    1
     3     7     8   ar
     4     8     9   ar
     5     9    13    1
     6    13    14    1
     7    13    15    1
     8    13    16    1
     9     9    10   ar
    10    10    11   ar
    11    11    12   ar
    12    12     1    1
    13     1     2    1
    14     2     3    1
    15     3     4    1
    16     4    19    1
    17    19    20    1
    18    20    21   ar
    19    21    22   ar
    20    22    23   ar
    21    23    26    1
    22    26    27    1
    23    26    28    1
    24    26    29    1
    25    23    24   ar
    26    24    25   ar
    27    19    30    1
    28    30    31   ar
    29    31    32   ar
    30    32    33   ar
    31    33    34   ar
    32    34    35   ar
    33     4     5    1
    34     5     6    1
    35    12     7   ar
    36     6     1    1
    37    25    20   ar
    38    35    30   ar
@<TRIPOS>MOLECULE
*****
 35 38 0 0 0
SMALL
GASTEIGER

@<TRIPOS>ATOM
      1 N          64.6942   89.8946   13.3820 N.pl3   1  UNL1       -0.3069
      2 C          63.8934   90.1417   12.1379 C.3     1  UNL1        0.0925
      3 C          63.0482   89.0456   11.5599 C.3     1  UNL1        0.0415
      4 C          63.0037   87.7023   12.2260 C.3     1  UNL1        0.0807
      5 C          63.8045   87.4551   13.4700 C.3     1  UNL1        0.0415
      6 C          64.6498   88.5513   14.0480 C.3     1  UNL1        0.0925
      7 C          65.8724   92.1967   13.1325 C.ar    1  UNL1        0.0817
      8 C          66.7176   93.2928   13.7105 C.ar    1  UNL1        0.0154
      9 C          67.2299   93.1829   15.1160 C.ar    1  UNL1        0.0722
     10 C          66.8970   91.9769   15.9435 C.ar    1  UNL1        0.0052
     11 C          66.0518   90.8809   15.3655 C.ar    1  UNL1        0.0151
     12 C          65.5395   90.9907   13.9600 C.ar    1  UNL1        0.0575
     13 C          68.0752   94.2791   15.6940 C.3     1  UNL1        0.4186
     14 F          68.9204   95.3752   16.2720 F       1  UNL1       -0.1659
     15 F          68.7109   93.2950   16.6306 F       1  UNL1       -0.1659
     16 F          67.4395   95.2632   14.7574 F       1  UNL1       -0.1659
     17 N          64.8477   92.4164   10.3215 N.1     1  UNL1       -0.1908
     18 C          65.3601   92.3066   11.7270 C.1     1  UNL1        0.1017
     19 N          62.1585   86.6062   11.6480 N.pl3   1  UNL1       -0.2872
     20 C          62.2882   85.2054   12.1684 C.ar    1  UNL1        0.0515
     21 C          62.6082   84.0822   11.2271 C.ar    1  UNL1        0.0148
     22 C          62.7379   82.6814   11.7476 C.ar    1  UNL1        0.0051
     23 C          62.5475   82.4037   13.2093 C.ar    1  UNL1        0.0715
     24 C          62.2275   83.5269   14.1505 C.ar    1  UNL1        0.0051
     25 C          62.0978   84.9277   13.6301 C.ar    1  UNL1        0.0148
     26 C          62.6772   81.0029   13.7297 C.3     1  UNL1        0.4186
     27 F          62.8069   79.6021   14.2502 F       1  UNL1       -0.1659
     28 F          61.4004   81.1705   14.4989 F       1  UNL1       -0.1659
     29 F          63.9540   80.8353   12.9605 F       1  UNL1       -0.1659
     30 C          61.1836   86.9110   10.5495 C.ar    1  UNL1        0.0710
     31 C          60.0860   87.9081   10.7761 C.ar    1  UNL1        0.0180
     32 C          59.1111   88.2128    9.6776 C.ar    1  UNL1        0.0220
     33 C          59.2337   87.5205    8.3526 C.ar    1  UNL1        0.0990
     34 N          60.3312   86.5235    8.1260 N.ar    1  UNL1       -0.2410
     35 C          61.3062   86.2187    9.2245 C.ar    1  UNL1        0.1136
@<TRIPOS>BOND
     1    17    18    3
     2    18     7    1
     3     7     8   ar
     4     8     9   ar
     5     9    13    1
     6    13    14    1
     7    13    15    1
     8    13    16    1
     9     9    10   ar
    10    10    11   ar
    11    11    12   ar
    12    12     1    1
    13     1     2    1
    14     2     3    1
    15     3     4    1
    16     4    19    1
    17    19    20    1
    18    20    21   ar
    19    21    22   ar
    20    22    23   ar
    21    23    26    1
    22    26    27    1
    23    26    28    1
    24    26    29    1
    25    23    24   ar
    26    24    25   ar
    27    19    30    1
    28    30    31   ar
    29    31    32   ar
    30    32    33   ar
    31    33    34   ar
    32    34    35   ar
    33     4     5    1
    34     5     6    1
    35    12     7   ar
    36     6     1    1
    37    25    20   ar
    38    35    30   ar
