@<TRIPOS>MOLECULE
*****
 20 22 0 0 0
SMALL
GASTEIGER

@<TRIPOS>ATOM
      1 C          63.2186   84.5797   10.1817 C.2     1  UNL1        0.0420
      2 C          62.0765   85.3242   10.8073 C.2     1  UNL1        0.0033
      3 C          61.4951   86.5227   10.1178 C.ar    1  UNL1        0.0001
      4 C          60.5493   86.3409    8.9679 C.ar    1  UNL1        0.0000
      5 C          59.9678   87.5395    8.2784 C.ar    1  UNL1        0.0000
      6 C          60.3321   88.9197    8.7388 C.ar    1  UNL1        0.0000
      7 C          61.2779   89.1016    9.8888 C.ar    1  UNL1        0.0000
      8 C          61.6422   90.4818   10.3493 C.ar    1  UNL1        0.0000
      9 C          62.5880   90.6636   11.4993 C.ar    1  UNL1        0.0000
     10 C          63.1694   89.4651   12.1888 C.ar    1  UNL1        0.0000
     11 C          62.8052   88.0848   11.7283 C.ar    1  UNL1        0.0000
     12 C          61.8594   87.9030   10.5783 C.ar    1  UNL1        0.0000
     13 O          64.6353   82.4035   10.0990 O.2     1  UNL1       -0.2866
     14 C          63.8000   83.3811   10.8712 C.2     1  UNL1        0.1957
     15 C          63.5462   83.1603   12.3331 C.ar    1  UNL1        0.0420
     16 C          64.3470   83.9113   13.3552 C.ar    1  UNL1        0.0239
     17 C          64.0932   83.6905   14.8169 C.ar    1  UNL1        0.0990
     18 N          63.0385   82.7187   15.2566 N.ar    1  UNL1       -0.2423
     19 C          62.2377   81.9677   14.2344 C.ar    1  UNL1        0.0990
     20 C          62.4915   82.1885   12.7727 C.ar    1  UNL1        0.0239
@<TRIPOS>BOND
     1    13    14    2
     2    14     1    1
     3     1     2    2
     4     2     3    1
     5     3     4   ar
     6     4     5   ar
     7     5     6   ar
     8     6     7   ar
     9     7     8   ar
    10     8     9   ar
    11     9    10   ar
    12    10    11   ar
    13    11    12   ar
    14    14    15    1
    15    15    16   ar
    16    16    17   ar
    17    17    18   ar
    18    18    19   ar
    19    19    20   ar
    20    12     3   ar
    21    20    15   ar
    22    12     7   ar
@<TRIPOS>MOLECULE
*****
 20 22 0 0 0
SMALL
GASTEIGER

@<TRIPOS>ATOM
      1 C          63.5258   84.6737   10.7343 C.2     1  UNL1        0.0420
      2 C          62.1519   85.2659   10.8424 C.2     1  UNL1        0.0033
      3 C          61.9489   86.7352   10.6191 C.ar    1  UNL1        0.0001
      4 C          62.6735   87.7312   11.4751 C.ar    1  UNL1        0.0000
      5 C          62.4705   89.2005   11.2518 C.ar    1  UNL1        0.0000
      6 C          61.5427   89.6739   10.1724 C.ar    1  UNL1        0.0000
      7 C          60.8180   88.6779    9.3162 C.ar    1  UNL1        0.0000
      8 C          59.8902   89.1512    8.2368 C.ar    1  UNL1        0.0000
      9 C          59.1656   88.1553    7.3808 C.ar    1  UNL1        0.0000
     10 C          59.3686   86.6860    7.6041 C.ar    1  UNL1        0.0000
     11 C          60.2964   86.2126    8.6835 C.ar    1  UNL1        0.0000
     12 C          61.0211   87.2086    9.5396 C.ar    1  UNL1        0.0000
     13 O          64.5271   82.3997    9.9752 O.2     1  UNL1       -0.2866
     14 C          63.7289   83.2044   10.9577 C.2     1  UNL1        0.1957
     15 C          63.1337   82.5398   12.1636 C.ar    1  UNL1        0.0420
     16 C          62.9003   83.3302   13.4169 C.ar    1  UNL1        0.0239
     17 C          62.3051   82.6656   14.6227 C.ar    1  UNL1        0.0990
     18 N          61.9434   81.2107   14.5753 N.ar    1  UNL1       -0.2423
     19 C          62.1768   80.4203   13.3220 C.ar    1  UNL1        0.0990
     20 C          62.7720   81.0849   12.1161 C.ar    1  UNL1        0.0239
@<TRIPOS>BOND
     1    13    14    2
     2    14     1    1
     3     1     2    2
     4     2     3    1
     5     3     4   ar
     6     4     5   ar
     7     5     6   ar
     8     6     7   ar
     9     7     8   ar
    10     8     9   ar
    11     9    10   ar
    12    10    11   ar
    13    11    12   ar
    14    14    15    1
    15    15    16   ar
    16    16    17   ar
    17    17    18   ar
    18    18    19   ar
    19    19    20   ar
    20    12     3   ar
    21    20    15   ar
    22    12     7   ar
@<TRIPOS>MOLECULE
*****
 20 22 0 0 0
SMALL
GASTEIGER

@<TRIPOS>ATOM
      1 C          63.8316   90.4199   14.3018 C.2     1  UNL1        0.0420
      2 C          64.2090   88.9687   14.2634 C.2     1  UNL1        0.0033
      3 C          63.5902   88.0595   13.2434 C.ar    1  UNL1        0.0001
      4 C          62.8849   88.6381   12.0527 C.ar    1  UNL1        0.0000
      5 C          62.2661   87.7289   11.0326 C.ar    1  UNL1        0.0000
      6 C          62.3527   86.2412   11.2032 C.ar    1  UNL1        0.0000
      7 C          63.0581   85.6626   12.3939 C.ar    1  UNL1        0.0000
      8 C          63.1446   84.1749   12.5645 C.ar    1  UNL1        0.0000
      9 C          63.8500   83.5963   13.7551 C.ar    1  UNL1        0.0000
     10 C          64.4687   84.5055   14.7752 C.ar    1  UNL1        0.0000
     11 C          64.3821   85.9932   14.6047 C.ar    1  UNL1        0.0000
     12 C          63.6768   86.5717   13.4140 C.ar    1  UNL1        0.0000
     13 O          63.6792   91.7140   16.5495 O.2     1  UNL1       -0.2866
     14 C          64.4504   91.3291   15.3219 C.2     1  UNL1        0.1957
     15 C          65.8404   91.8533   15.1143 C.ar    1  UNL1        0.0420
     16 C          66.5786   91.5401   13.8466 C.ar    1  UNL1        0.0239
     17 C          67.9685   92.0644   13.6390 C.ar    1  UNL1        0.0990
     18 N          68.6203   92.9018   14.6991 N.ar    1  UNL1       -0.2423
     19 C          67.8822   93.2150   15.9668 C.ar    1  UNL1        0.0990
     20 C          66.4922   92.6908   16.1744 C.ar    1  UNL1        0.0239
@<TRIPOS>BOND
     1    13    14    2
     2    14     1    1
     3     1     2    2
     4     2     3    1
     5     3     4   ar
     6     4     5   ar
     7     5     6   ar
     8     6     7   ar
     9     7     8   ar
    10     8     9   ar
    11     9    10   ar
    12    10    11   ar
    13    11    12   ar
    14    14    15    1
    15    15    16   ar
    16    16    17   ar
    17    17    18   ar
    18    18    19   ar
    19    19    20   ar
    20    12     3   ar
    21    20    15   ar
    22    12     7   ar
@<TRIPOS>MOLECULE
*****
 20 22 0 0 0
SMALL
GASTEIGER

@<TRIPOS>ATOM
      1 C          63.6190   89.3840   12.9496 C.2     1  UNL1        0.0420
      2 C          62.5340   89.2913   11.9181 C.2     1  UNL1        0.0033
      3 C          62.2176   87.9717   11.2788 C.ar    1  UNL1        0.0001
      4 C          62.7812   86.7058   11.8531 C.ar    1  UNL1        0.0000
      5 C          62.4648   85.3863   11.2138 C.ar    1  UNL1        0.0000
      6 C          61.5848   85.3326   10.0003 C.ar    1  UNL1        0.0000
      7 C          61.0212   86.5985    9.4259 C.ar    1  UNL1        0.0000
      8 C          60.1412   86.5449    8.2124 C.ar    1  UNL1        0.0000
      9 C          59.5776   87.8107    7.6382 C.ar    1  UNL1        0.0000
     10 C          59.8939   89.1303    8.2774 C.ar    1  UNL1        0.0000
     11 C          60.7739   89.1840    9.4909 C.ar    1  UNL1        0.0000
     12 C          61.3375   87.9181   10.0652 C.ar    1  UNL1        0.0000
     13 O          63.2838   91.0843   14.8852 O.2     1  UNL1       -0.2866
     14 C          63.9354   90.7035   13.5889 C.2     1  UNL1        0.1957
     15 C          64.9033   91.6423   12.9317 C.ar    1  UNL1        0.0420
     16 C          66.0679   92.1828   13.7074 C.ar    1  UNL1        0.0239
     17 C          67.0359   93.1216   13.0503 C.ar    1  UNL1        0.0990
     18 N          66.8392   93.5199   11.6176 N.ar    1  UNL1       -0.2423
     19 C          65.6746   92.9794   10.8420 C.ar    1  UNL1        0.0990
     20 C          64.7067   92.0406   11.4990 C.ar    1  UNL1        0.0239
@<TRIPOS>BOND
     1    13    14    2
     2    14     1    1
     3     1     2    2
     4     2     3    1
     5     3     4   ar
     6     4     5   ar
     7     5     6   ar
     8     6     7   ar
     9     7     8   ar
    10     8     9   ar
    11     9    10   ar
    12    10    11   ar
    13    11    12   ar
    14    14    15    1
    15    15    16   ar
    16    16    17   ar
    17    17    18   ar
    18    18    19   ar
    19    19    20   ar
    20    12     3   ar
    21    20    15   ar
    22    12     7   ar
@<TRIPOS>MOLECULE
*****
 20 22 0 0 0
SMALL
GASTEIGER

@<TRIPOS>ATOM
      1 C          64.5391   87.2715   14.5862 C.2     1  UNL1        0.0420
      2 C          63.8266   88.5810   14.7511 C.2     1  UNL1        0.0033
      3 C          64.3864   89.8236   14.1244 C.ar    1  UNL1        0.0001
      4 C          65.4027   90.6434   14.8627 C.ar    1  UNL1        0.0000
      5 C          65.9625   91.8860   14.2361 C.ar    1  UNL1        0.0000
      6 C          65.5060   92.3087   12.8712 C.ar    1  UNL1        0.0000
      7 C          64.4897   91.4889   12.1329 C.ar    1  UNL1        0.0000
      8 C          64.0333   91.9116   10.7680 C.ar    1  UNL1        0.0000
      9 C          63.0170   91.0918   10.0298 C.ar    1  UNL1        0.0000
     10 C          62.4572   89.8492   10.6564 C.ar    1  UNL1        0.0000
     11 C          62.9136   89.4265   12.0213 C.ar    1  UNL1        0.0000
     12 C          63.9299   90.2463   12.7595 C.ar    1  UNL1        0.0000
     13 O          63.7321   85.9806   16.6915 O.2     1  UNL1       -0.2866
     14 C          63.9793   86.0289   15.2128 C.2     1  UNL1        0.1957
     15 C          63.6667   84.8346   14.3607 C.ar    1  UNL1        0.0420
     16 C          63.8345   83.4518   14.9170 C.ar    1  UNL1        0.0239
     17 C          63.5219   82.2575   14.0650 C.ar    1  UNL1        0.0990
     18 N          63.0417   82.4461   12.6566 N.ar    1  UNL1       -0.2423
     19 C          62.8739   83.8290   12.1002 C.ar    1  UNL1        0.0990
     20 C          63.1865   85.0232   12.9522 C.ar    1  UNL1        0.0239
@<TRIPOS>BOND
     1    13    14    2
     2    14     1    1
     3     1     2    2
     4     2     3    1
     5     3     4   ar
     6     4     5   ar
     7     5     6   ar
     8     6     7   ar
     9     7     8   ar
    10     8     9   ar
    11     9    10   ar
    12    10    11   ar
    13    11    12   ar
    14    14    15    1
    15    15    16   ar
    16    16    17   ar
    17    17    18   ar
    18    18    19   ar
    19    19    20   ar
    20    12     3   ar
    21    20    15   ar
    22    12     7   ar
@<TRIPOS>MOLECULE
*****
 20 22 0 0 0
SMALL
GASTEIGER

@<TRIPOS>ATOM
      1 C          63.8969   89.4131   14.8701 C.2     1  UNL1        0.0420
      2 C          63.9080   88.9850   13.4326 C.2     1  UNL1        0.0033
      3 C          63.5306   87.5804   13.0655 C.ar    1  UNL1        0.0001
      4 C          63.9443   86.4383   13.9454 C.ar    1  UNL1        0.0000
      5 C          63.5670   85.0337   13.5782 C.ar    1  UNL1        0.0000
      6 C          62.7759   84.7713   12.3312 C.ar    1  UNL1        0.0000
      7 C          62.3621   85.9134   11.4512 C.ar    1  UNL1        0.0000
      8 C          61.5710   85.6510   10.2041 C.ar    1  UNL1        0.0000
      9 C          61.1573   86.7931    9.3242 C.ar    1  UNL1        0.0000
     10 C          61.5347   88.1977    9.6913 C.ar    1  UNL1        0.0000
     11 C          62.3257   88.4601   10.9384 C.ar    1  UNL1        0.0000
     12 C          62.7395   87.3180   11.8183 C.ar    1  UNL1        0.0000
     13 O          63.5719   91.5123   16.3661 O.2     1  UNL1       -0.2866
     14 C          64.2743   90.8177   15.2373 C.2     1  UNL1        0.1957
     15 C          65.3540   91.5277   14.4755 C.ar    1  UNL1        0.0420
     16 C          66.7348   91.6310   15.0522 C.ar    1  UNL1        0.0239
     17 C          67.8146   92.3409   14.2905 C.ar    1  UNL1        0.0990
     18 N          67.5134   92.9476   12.9522 N.ar    1  UNL1       -0.2423
     19 C          66.1325   92.8443   12.3755 C.ar    1  UNL1        0.0990
     20 C          65.0528   92.1344   13.1372 C.ar    1  UNL1        0.0239
@<TRIPOS>BOND
     1    13    14    2
     2    14     1    1
     3     1     2    2
     4     2     3    1
     5     3     4   ar
     6     4     5   ar
     7     5     6   ar
     8     6     7   ar
     9     7     8   ar
    10     8     9   ar
    11     9    10   ar
    12    10    11   ar
    13    11    12   ar
    14    14    15    1
    15    15    16   ar
    16    16    17   ar
    17    17    18   ar
    18    18    19   ar
    19    19    20   ar
    20    12     3   ar
    21    20    15   ar
    22    12     7   ar
@<TRIPOS>MOLECULE
*****
 20 22 0 0 0
SMALL
GASTEIGER

@<TRIPOS>ATOM
      1 C          61.9554   86.9014   10.8700 C.2     1  UNL1        0.0420
      2 C          62.3912   85.8746   11.8729 C.2     1  UNL1        0.0033
      3 C          62.8794   84.5340   11.4100 C.ar    1  UNL1        0.0001
      4 C          63.5009   84.3899   10.0525 C.ar    1  UNL1        0.0000
      5 C          63.9891   83.0493    9.5895 C.ar    1  UNL1        0.0000
      6 C          63.8558   81.8527   10.4841 C.ar    1  UNL1        0.0000
      7 C          63.2342   81.9967   11.8417 C.ar    1  UNL1        0.0000
      8 C          63.1008   80.8001   12.7363 C.ar    1  UNL1        0.0000
      9 C          62.4793   80.9441   14.0938 C.ar    1  UNL1        0.0000
     10 C          61.9911   82.2848   14.5567 C.ar    1  UNL1        0.0000
     11 C          62.1244   83.4814   13.6621 C.ar    1  UNL1        0.0000
     12 C          62.7460   83.3373   12.3046 C.ar    1  UNL1        0.0000
     13 O          60.0266   88.4274   11.7071 O.2     1  UNL1       -0.2866
     14 C          61.4672   88.2421   11.3329 C.2     1  UNL1        0.1957
     15 C          62.4198   89.3974   11.4217 C.ar    1  UNL1        0.0420
     16 C          63.2240   89.6123   12.6696 C.ar    1  UNL1        0.0239
     17 C          64.1765   90.7676   12.7584 C.ar    1  UNL1        0.0990
     18 N          64.3249   91.7080   11.5993 N.ar    1  UNL1       -0.2423
     19 C          63.5207   91.4932   10.3514 C.ar    1  UNL1        0.0990
     20 C          62.5682   90.3379   10.2626 C.ar    1  UNL1        0.0239
@<TRIPOS>BOND
     1    13    14    2
     2    14     1    1
     3     1     2    2
     4     2     3    1
     5     3     4   ar
     6     4     5   ar
     7     5     6   ar
     8     6     7   ar
     9     7     8   ar
    10     8     9   ar
    11     9    10   ar
    12    10    11   ar
    13    11    12   ar
    14    14    15    1
    15    15    16   ar
    16    16    17   ar
    17    17    18   ar
    18    18    19   ar
    19    19    20   ar
    20    12     3   ar
    21    20    15   ar
    22    12     7   ar
@<TRIPOS>MOLECULE
*****
 20 22 0 0 0
SMALL
GASTEIGER

@<TRIPOS>ATOM
      1 C          63.4450   86.0023   12.9315 C.2     1  UNL1        0.0420
      2 C          62.5815   86.1111   11.7099 C.2     1  UNL1        0.0033
      3 C          62.2240   87.4609   11.1619 C.ar    1  UNL1        0.0001
      4 C          62.7963   88.6991   11.7857 C.ar    1  UNL1        0.0000
      5 C          62.4388   90.0489   11.2378 C.ar    1  UNL1        0.0000
      6 C          61.5090   90.1605   10.0660 C.ar    1  UNL1        0.0000
      7 C          60.9367   88.9222    9.4422 C.ar    1  UNL1        0.0000
      8 C          60.0069   89.0337    8.2704 C.ar    1  UNL1        0.0000
      9 C          59.4346   87.7955    7.6466 C.ar    1  UNL1        0.0000
     10 C          59.7922   86.4457    8.1946 C.ar    1  UNL1        0.0000
     11 C          60.7219   86.3341    9.3663 C.ar    1  UNL1        0.0000
     12 C          61.2942   87.5724    9.9901 C.ar    1  UNL1        0.0000
     13 O          64.4036   84.5340   14.8486 O.2     1  UNL1       -0.2866
     14 C          63.8026   84.6525   13.4794 C.2     1  UNL1        0.1957
     15 C          63.5590   83.4211   12.6581 C.ar    1  UNL1        0.0420
     16 C          64.1827   83.2898   11.3003 C.ar    1  UNL1        0.0239
     17 C          63.9392   82.0585   10.4790 C.ar    1  UNL1        0.0990
     18 N          63.0720   80.9585   11.0155 N.ar    1  UNL1       -0.2423
     19 C          62.4483   81.0898   12.3734 C.ar    1  UNL1        0.0990
     20 C          62.6918   82.3211   13.1947 C.ar    1  UNL1        0.0239
@<TRIPOS>BOND
     1    13    14    2
     2    14     1    1
     3     1     2    2
     4     2     3    1
     5     3     4   ar
     6     4     5   ar
     7     5     6   ar
     8     6     7   ar
     9     7     8   ar
    10     8     9   ar
    11     9    10   ar
    12    10    11   ar
    13    11    12   ar
    14    14    15    1
    15    15    16   ar
    16    16    17   ar
    17    17    18   ar
    18    18    19   ar
    19    19    20   ar
    20    12     3   ar
    21    20    15   ar
    22    12     7   ar
@<TRIPOS>MOLECULE
*****
 20 22 0 0 0
SMALL
GASTEIGER

@<TRIPOS>ATOM
      1 C          64.1130   91.4209   10.9016 C.2     1  UNL1        0.0420
      2 C          63.1427   90.5592   11.6537 C.2     1  UNL1        0.0033
      3 C          62.2209   89.6405   10.9077 C.ar    1  UNL1        0.0001
      4 C          61.2816   90.1947    9.8779 C.ar    1  UNL1        0.0000
      5 C          60.3599   89.2761    9.1319 C.ar    1  UNL1        0.0000
      6 C          60.3774   87.8033    9.4158 C.ar    1  UNL1        0.0000
      7 C          61.3167   87.2491   10.4457 C.ar    1  UNL1        0.0000
      8 C          61.3343   85.7763   10.7295 C.ar    1  UNL1        0.0000
      9 C          62.2735   85.2222   11.7593 C.ar    1  UNL1        0.0000
     10 C          63.1953   86.1408   12.5053 C.ar    1  UNL1        0.0000
     11 C          63.1778   87.6136   12.2215 C.ar    1  UNL1        0.0000
     12 C          62.2385   88.1677   11.1916 C.ar    1  UNL1        0.0000
     13 O          64.9088   92.4824   13.1354 O.2     1  UNL1       -0.2866
     14 C          65.0348   92.3395   11.6476 C.2     1  UNL1        0.1957
     15 C          66.0825   93.1154   10.9057 C.ar    1  UNL1        0.0420
     16 C          67.2427   92.3999   10.2795 C.ar    1  UNL1        0.0239
     17 C          68.2904   93.1756    9.5376 C.ar    1  UNL1        0.0990
     18 N          68.1780   94.6669    9.4219 N.ar    1  UNL1       -0.2423
     19 C          67.0178   95.3824   10.0481 C.ar    1  UNL1        0.0990
     20 C          65.9701   94.6066   10.7900 C.ar    1  UNL1        0.0239
@<TRIPOS>BOND
     1    13    14    2
     2    14     1    1
     3     1     2    2
     4     2     3    1
     5     3     4   ar
     6     4     5   ar
     7     5     6   ar
     8     6     7   ar
     9     7     8   ar
    10     8     9   ar
    11     9    10   ar
    12    10    11   ar
    13    11    12   ar
    14    14    15    1
    15    15    16   ar
    16    16    17   ar
    17    17    18   ar
    18    18    19   ar
    19    19    20   ar
    20    12     3   ar
    21    20    15   ar
    22    12     7   ar
