@<TRIPOS>MOLECULE
*****
 30 34 0 0 0
SMALL
GASTEIGER

@<TRIPOS>ATOM
      1 C          62.0294   86.6993   10.8915 C.ar    1  UNL1        0.1346
      2 C          62.4111   85.4867   11.6876 C.ar    1  UNL1        0.0500
      3 C          63.2370   85.6352   12.9310 C.ar    1  UNL1        0.0752
      4 N          63.6811   86.9963   13.3782 N.ar    1  UNL1       -0.2302
      5 C          63.2994   88.2090   12.5820 C.ar    1  UNL1        0.1603
      6 N          62.4735   88.0605   11.3387 N.ar    1  UNL1       -0.2122
      7 C          63.7435   89.5701   13.0293 C.2     1  UNL1        0.0332
      8 C          64.2701   90.5541   12.0271 C.2     1  UNL1        0.0501
      9 C          64.7143   91.9152   12.4743 C.2     1  UNL1        0.2355
     10 N          64.6319   92.2924   13.9238 N.2     1  UNL1       -0.0341
     11 C          64.1053   91.3084   14.9260 C.2     1  UNL1        0.3594
     12 N          63.9082   91.3959   16.4104 N.2     1  UNL1       -0.0344
     13 C          63.3422   90.0888   16.8806 C.2     1  UNL1        0.2320
     14 C          63.1895   89.1935   15.6868 C.2     1  UNL1        0.0409
     15 C          63.6611   89.9473   14.4787 C.3     1  UNL1        0.1630
     16 C          63.1012   85.1534    8.5545 C.3     1  UNL1        0.0241
     17 C          61.7394   85.7779    8.4797 C.3     1  UNL1        0.1038
     18 C          60.9135   85.6294    7.2364 C.3     1  UNL1        0.1618
     19 O          59.5518   86.2538    7.1615 O.3     1  UNL1       -0.3502
     20 C          59.0158   87.0268    8.3299 C.3     1  UNL1        0.1636
     21 C          59.8416   87.1753    9.5733 C.3     1  UNL1        0.1242
     22 N          61.2035   86.5508    9.6482 N.pl3   1  UNL1       -0.2897
     23 C          63.6187   84.4226   13.7270 C.3     1  UNL1        0.1119
     24 C          64.0363   83.0164   14.0408 C.3     1  UNL1        0.0204
     25 C          63.8545   83.4443   12.6146 C.3     1  UNL1        0.0204
     26 S          63.5154   84.9797   15.1159 S.3     1  UNL1        0.0687
     27 C          63.4121   85.5368   16.5047 C.3     1  UNL1        0.1170
     28 N          65.0064   85.1367   15.1638 N.2     1  UNL1       -0.2504
     29 O          62.0244   84.8227   15.0680 O.2     1  UNL1       -0.2461
     30 H          65.5544   84.8715   14.3901 H       1  UNL1        0.1971
@<TRIPOS>BOND
     1    17    16    1
     2    17    18    1
     3    18    19    1
     4    19    20    1
     5    20    21    1
     6    21    22    1
     7    22     1    1
     8     1     2   ar
     9     2     3   ar
    10     3    23    1
    11    23    26    1
    12    26    27    1
    13    26    28    2
    14    26    29    2
    15    23    24    1
    16    24    25    1
    17     3     4   ar
    18     4     5   ar
    19     5     7    1
    20     7     8    2
    21     8     9    1
    22     9    10    2
    23    10    11    1
    24    11    12    2
    25    12    13    1
    26    13    14    2
    27    14    15    1
    28     5     6   ar
    29    22    17    1
    30     6     1   ar
    31    25    23    1
    32    15     7    1
    33    15    11    1
    34    28    30    1
@<TRIPOS>MOLECULE
*****
 30 34 0 0 0
SMALL
GASTEIGER

@<TRIPOS>ATOM
      1 C          63.6332   89.1541   13.1770 C.ar    1  UNL1        0.1346
      2 C          62.6654   89.3814   12.0538 C.ar    1  UNL1        0.0500
      3 C          61.9864   88.2138   11.4010 C.ar    1  UNL1        0.0752
      4 N          62.2752   86.8192   11.8715 N.ar    1  UNL1       -0.2302
      5 C          63.2431   86.5919   12.9947 C.ar    1  UNL1        0.1603
      6 N          63.9221   87.7593   13.6475 N.ar    1  UNL1       -0.2122
      7 C          63.5320   85.1972   13.4652 C.2     1  UNL1        0.0332
      8 C          63.6808   84.9158   14.9310 C.2     1  UNL1        0.0501
      9 C          63.9696   83.5212   15.4014 C.2     1  UNL1        0.2355
     10 N          64.1097   82.4077   14.4061 N.2     1  UNL1       -0.0341
     11 C          63.9610   82.6891   12.9402 C.2     1  UNL1        0.3594
     12 N          64.0455   81.8012   11.7342 N.2     1  UNL1       -0.0344
     13 C          63.8088   82.6473   10.5184 C.2     1  UNL1        0.2320
     14 C          63.5781   84.0580   10.9730 C.2     1  UNL1        0.0409
     15 C          63.6721   84.0838   12.4698 C.3     1  UNL1        0.1630
     16 C          63.2417   89.6714   16.1060 C.3     1  UNL1        0.0241
     17 C          64.1164   90.5802   15.2942 C.3     1  UNL1        0.1038
     18 C          64.7954   91.7476   15.9470 C.3     1  UNL1        0.1618
     19 O          65.6702   92.6563   15.1352 O.3     1  UNL1       -0.3502
     20 C          65.8660   92.3978   13.6707 C.3     1  UNL1        0.1636
     21 C          65.1870   91.2303   13.0179 C.3     1  UNL1        0.1242
     22 N          64.3122   90.3215   13.8297 N.pl3   1  UNL1       -0.2897
     23 C          61.0185   88.4411   10.2778 C.3     1  UNL1        0.1119
     24 C          60.3732   88.3276    8.9285 C.3     1  UNL1        0.0204
     25 C          61.6112   87.5385    9.2367 C.3     1  UNL1        0.0204
     26 S          60.0898   89.4227   10.9290 S.3     1  UNL1        0.0687
     27 C          59.1611   90.4043   11.5801 C.3     1  UNL1        0.1170
     28 N          59.6039   88.3481   11.8559 N.2     1  UNL1       -0.2504
     29 O          60.5757   90.4974   10.0021 O.2     1  UNL1       -0.2461
     30 H          59.9723   87.4375   11.7899 H       1  UNL1        0.1971
@<TRIPOS>BOND
     1    17    16    1
     2    17    18    1
     3    18    19    1
     4    19    20    1
     5    20    21    1
     6    21    22    1
     7    22     1    1
     8     1     2   ar
     9     2     3   ar
    10     3    23    1
    11    23    26    1
    12    26    27    1
    13    26    28    2
    14    26    29    2
    15    23    24    1
    16    24    25    1
    17     3     4   ar
    18     4     5   ar
    19     5     7    1
    20     7     8    2
    21     8     9    1
    22     9    10    2
    23    10    11    1
    24    11    12    2
    25    12    13    1
    26    13    14    2
    27    14    15    1
    28     5     6   ar
    29    22    17    1
    30     6     1   ar
    31    25    23    1
    32    15     7    1
    33    15    11    1
    34    28    30    1
@<TRIPOS>MOLECULE
*****
 30 34 0 0 0
SMALL
GASTEIGER

@<TRIPOS>ATOM
      1 C          61.8438   87.1674   10.6036 C.ar    1  UNL1        0.1346
      2 C          62.2776   88.5638   10.9385 C.ar    1  UNL1        0.0500
      3 C          63.1080   88.8182   12.1615 C.ar    1  UNL1        0.0752
      4 N          63.5046   87.6763   13.0496 N.ar    1  UNL1       -0.2302
      5 C          63.0708   86.2799   12.7147 C.ar    1  UNL1        0.1603
      6 N          62.2404   86.0255   11.4917 N.ar    1  UNL1       -0.2122
      7 C          63.4675   85.1380   13.6029 C.2     1  UNL1        0.0332
      8 C          63.9619   85.4061   14.9934 C.2     1  UNL1        0.0501
      9 C          64.3585   84.2643   15.8815 C.2     1  UNL1        0.2355
     10 N          64.2608   82.8543   15.3792 N.2     1  UNL1       -0.0341
     11 C          63.7663   82.5862   13.9886 C.2     1  UNL1        0.3594
     12 N          63.5638   81.3119   13.2237 N.2     1  UNL1       -0.0344
     13 C          63.0419   81.6662   11.8628 C.2     1  UNL1        0.2320
     14 C          62.9220   83.1595   11.7866 C.2     1  UNL1        0.0409
     15 C          63.3697   83.7281   13.1005 C.3     1  UNL1        0.1630
     16 C          62.8602   85.3377    8.4544 C.3     1  UNL1        0.0241
     17 C          61.5216   85.9981    8.3061 C.3     1  UNL1        0.1038
     18 C          60.6912   85.7437    7.0831 C.3     1  UNL1        0.1618
     19 O          59.3527   86.4041    6.9347 O.3     1  UNL1       -0.3502
     20 C          58.8444   87.3190    8.0092 C.3     1  UNL1        0.1636
     21 C          59.6748   87.5735    9.2322 C.3     1  UNL1        0.1242
     22 N          61.0135   86.9130    9.3806 N.pl3   1  UNL1       -0.2897
     23 C          63.5417   90.2145   12.4964 C.3     1  UNL1        0.1119
     24 C          63.9646   91.6417   12.3113 C.3     1  UNL1        0.0204
     25 C          63.6609   90.7884   11.1156 C.3     1  UNL1        0.0204
     26 S          63.5732   90.1255   13.9934 S.3     1  UNL1        0.0687
     27 C          63.6048   90.0364   15.4904 C.3     1  UNL1        0.1170
     28 N          62.0806   89.9783   14.0161 N.2     1  UNL1       -0.2504
     29 O          65.0658   90.2726   13.9708 O.2     1  UNL1       -0.2461
     30 H          61.5729   89.9806   13.1726 H       1  UNL1        0.1971
@<TRIPOS>BOND
     1    17    16    1
     2    17    18    1
     3    18    19    1
     4    19    20    1
     5    20    21    1
     6    21    22    1
     7    22     1    1
     8     1     2   ar
     9     2     3   ar
    10     3    23    1
    11    23    26    1
    12    26    27    1
    13    26    28    2
    14    26    29    2
    15    23    24    1
    16    24    25    1
    17     3     4   ar
    18     4     5   ar
    19     5     7    1
    20     7     8    2
    21     8     9    1
    22     9    10    2
    23    10    11    1
    24    11    12    2
    25    12    13    1
    26    13    14    2
    27    14    15    1
    28     5     6   ar
    29    22    17    1
    30     6     1   ar
    31    25    23    1
    32    15     7    1
    33    15    11    1
    34    28    30    1
@<TRIPOS>MOLECULE
*****
 30 34 0 0 0
SMALL
GASTEIGER

@<TRIPOS>ATOM
      1 C          61.9737   86.5657   10.9462 C.ar    1  UNL1        0.1346
      2 C          62.2534   85.3263   11.7434 C.ar    1  UNL1        0.0500
      3 C          63.0592   85.4124   13.0057 C.ar    1  UNL1        0.0752
      4 N          63.5853   86.7379   13.4707 N.ar    1  UNL1       -0.2302
      5 C          63.3056   87.9774   12.6734 C.ar    1  UNL1        0.1603
      6 N          62.4998   87.8913   11.4112 N.ar    1  UNL1       -0.2122
      7 C          63.8317   89.3029   13.1385 C.2     1  UNL1        0.0332
      8 C          64.2472   89.4851   14.5682 C.2     1  UNL1        0.0501
      9 C          64.7733   90.8105   15.0332 C.2     1  UNL1        0.2355
     10 N          64.8839   91.9539   14.0685 N.2     1  UNL1       -0.0341
     11 C          64.4685   91.7717   12.6388 C.2     1  UNL1        0.3594
     12 N          64.4636   92.7090   11.4678 N.2     1  UNL1       -0.0344
     13 C          63.9345   91.9628   10.2790 C.2     1  UNL1        0.2320
     14 C          63.6124   90.5643   10.7153 C.2     1  UNL1        0.0409
     15 C          63.9423   90.4462   12.1738 C.3     1  UNL1        0.1630
     16 C          63.0809   85.1324    8.5546 C.3     1  UNL1        0.0241
     17 C          61.7215   85.7630    8.4881 C.3     1  UNL1        0.1038
     18 C          60.9158   85.6769    7.2259 C.3     1  UNL1        0.1618
     19 O          59.5564   86.3075    7.1594 O.3     1  UNL1       -0.3502
     20 C          59.0027   87.0242    8.3551 C.3     1  UNL1        0.1636
     21 C          59.8085   87.1103    9.6175 C.3     1  UNL1        0.1242
     22 N          61.1679   86.4797    9.6839 N.pl3   1  UNL1       -0.2897
     23 C          63.3389   84.1730   13.8029 C.3     1  UNL1        0.1119
     24 C          63.6295   82.7356   14.1184 C.3     1  UNL1        0.0204
     25 C          63.4675   83.1726   12.6926 C.3     1  UNL1        0.0204
     26 S          63.3074   84.7430   15.1901 S.3     1  UNL1        0.0687
     27 C          63.2759   85.3129   16.5772 C.3     1  UNL1        0.1170
     28 N          64.8070   84.7672   15.2142 N.2     1  UNL1       -0.2504
     29 O          61.8078   84.7188   15.1660 O.2     1  UNL1       -0.2461
     30 H          65.3170   84.4511   14.4336 H       1  UNL1        0.1971
@<TRIPOS>BOND
     1    17    16    1
     2    17    18    1
     3    18    19    1
     4    19    20    1
     5    20    21    1
     6    21    22    1
     7    22     1    1
     8     1     2   ar
     9     2     3   ar
    10     3    23    1
    11    23    26    1
    12    26    27    1
    13    26    28    2
    14    26    29    2
    15    23    24    1
    16    24    25    1
    17     3     4   ar
    18     4     5   ar
    19     5     7    1
    20     7     8    2
    21     8     9    1
    22     9    10    2
    23    10    11    1
    24    11    12    2
    25    12    13    1
    26    13    14    2
    27    14    15    1
    28     5     6   ar
    29    22    17    1
    30     6     1   ar
    31    25    23    1
    32    15     7    1
    33    15    11    1
    34    28    30    1
@<TRIPOS>MOLECULE
*****
 30 34 0 0 0
SMALL
GASTEIGER

@<TRIPOS>ATOM
      1 C          63.1587   86.6644   12.6860 C.ar    1  UNL1        0.1346
      2 C          62.0852   86.8835   11.6616 C.ar    1  UNL1        0.0500
      3 C          61.7476   88.2752   11.2150 C.ar    1  UNL1        0.0752
      4 N          62.4836   89.4475   11.7927 N.ar    1  UNL1       -0.2302
      5 C          63.5572   89.2283   12.8172 C.ar    1  UNL1        0.1603
      6 N          63.8948   87.8367   13.2638 N.ar    1  UNL1       -0.2122
      7 C          64.2932   90.4007   13.3949 C.2     1  UNL1        0.0332
      8 C          64.5665   90.4626   14.8685 C.2     1  UNL1        0.0501
      9 C          65.3024   91.6350   15.4462 C.2     1  UNL1        0.2355
     10 N          65.7652   92.7456   14.5504 N.2     1  UNL1       -0.0341
     11 C          65.4919   92.6837   13.0768 C.2     1  UNL1        0.3594
     12 N          65.8234   93.6219   11.9543 N.2     1  UNL1       -0.0344
     13 C          65.2923   93.0292   10.6828 C.2     1  UNL1        0.2320
     14 C          64.6325   91.7248   11.0195 C.2     1  UNL1        0.0409
     15 C          64.7559   91.5113   12.4991 C.3     1  UNL1        0.1630
     16 C          63.9966   86.1611   15.5224 C.3     1  UNL1        0.0241
     17 C          63.9152   85.0211   14.5509 C.3     1  UNL1        0.1038
     18 C          64.2528   83.6296   14.9975 C.3     1  UNL1        0.1618
     19 O          64.1715   82.4896   14.0260 O.3     1  UNL1       -0.3502
     20 C          63.7526   82.7411   12.6079 C.3     1  UNL1        0.1636
     21 C          63.4150   84.1327   12.1611 C.3     1  UNL1        0.1242
     22 N          63.4963   85.2728   13.1327 N.pl3   1  UNL1       -0.2897
     23 C          60.6741   88.4944   10.1906 C.3     1  UNL1        0.1119
     24 C          59.8741   88.3375    8.9314 C.3     1  UNL1        0.0204
     25 C          61.0892   87.4878    9.1588 C.3     1  UNL1        0.0204
     26 S          59.8861   89.5770   10.8666 S.3     1  UNL1        0.0687
     27 C          59.0983   90.6596   11.5427 C.3     1  UNL1        0.1170
     28 N          60.3618   90.5634    9.8415 N.2     1  UNL1       -0.2504
     29 O          59.4105   88.5907   11.8918 O.2     1  UNL1       -0.2461
     30 H          60.9658   90.2716    9.1208 H       1  UNL1        0.1971
@<TRIPOS>BOND
     1    17    16    1
     2    17    18    1
     3    18    19    1
     4    19    20    1
     5    20    21    1
     6    21    22    1
     7    22     1    1
     8     1     2   ar
     9     2     3   ar
    10     3    23    1
    11    23    26    1
    12    26    27    1
    13    26    28    2
    14    26    29    2
    15    23    24    1
    16    24    25    1
    17     3     4   ar
    18     4     5   ar
    19     5     7    1
    20     7     8    2
    21     8     9    1
    22     9    10    2
    23    10    11    1
    24    11    12    2
    25    12    13    1
    26    13    14    2
    27    14    15    1
    28     5     6   ar
    29    22    17    1
    30     6     1   ar
    31    25    23    1
    32    15     7    1
    33    15    11    1
    34    28    30    1
@<TRIPOS>MOLECULE
*****
 30 34 0 0 0
SMALL
GASTEIGER

@<TRIPOS>ATOM
      1 C          61.9606   87.3684   11.0027 C.ar    1  UNL1        0.1346
      2 C          62.2942   86.0308   11.5938 C.ar    1  UNL1        0.0500
      3 C          63.1917   85.9433   12.7925 C.ar    1  UNL1        0.0752
      4 N          63.7555   87.1934   13.4002 N.ar    1  UNL1       -0.2302
      5 C          63.4218   88.5311   12.8091 C.ar    1  UNL1        0.1603
      6 N          62.5244   88.6186   11.6104 N.ar    1  UNL1       -0.2122
      7 C          63.9856   89.7812   13.4168 C.2     1  UNL1        0.0332
      8 C          64.1332   89.8910   14.9055 C.2     1  UNL1        0.0501
      9 C          64.6969   91.1410   15.5132 C.2     1  UNL1        0.2355
     10 N          65.1133   92.2815   14.6322 N.2     1  UNL1       -0.0341
     11 C          64.9658   92.1718   13.1435 C.2     1  UNL1        0.3594
     12 N          65.2876   93.1241   12.0302 N.2     1  UNL1       -0.0344
     13 C          64.9227   92.4625   10.7344 C.2     1  UNL1        0.2320
     14 C          64.3753   91.1013   11.0469 C.2     1  UNL1        0.0409
     15 C          64.4020   90.9216   12.5358 C.3     1  UNL1        0.1630
     16 C          60.8624   90.0241   10.1418 C.3     1  UNL1        0.0241
     17 C          60.5141   88.7838    9.3735 C.3     1  UNL1        0.1038
     18 C          59.6167   88.8713    8.1748 C.3     1  UNL1        0.1618
     19 O          59.2684   87.6310    7.4066 O.3     1  UNL1       -0.3502
     20 C          59.8174   86.3032    7.8369 C.3     1  UNL1        0.1636
     21 C          60.7149   86.2156    9.0357 C.3     1  UNL1        0.1242
     22 N          61.0632   87.4560    9.8040 N.pl3   1  UNL1       -0.2897
     23 C          63.5253   84.6056   13.3836 C.3     1  UNL1        0.1119
     24 C          63.8531   83.1443   13.4686 C.3     1  UNL1        0.0204
     25 C          63.6244   83.7852   12.1317 C.3     1  UNL1        0.0204
     26 S          63.5421   84.9616   14.8407 S.3     1  UNL1        0.0687
     27 C          63.5588   85.3175   16.2976 C.3     1  UNL1        0.1170
     28 N          65.0409   85.0129   14.8108 N.2     1  UNL1       -0.2504
     29 O          62.0433   84.9102   14.8705 O.2     1  UNL1       -0.2461
     30 H          65.5233   84.8274   13.9729 H       1  UNL1        0.1971
@<TRIPOS>BOND
     1    17    16    1
     2    17    18    1
     3    18    19    1
     4    19    20    1
     5    20    21    1
     6    21    22    1
     7    22     1    1
     8     1     2   ar
     9     2     3   ar
    10     3    23    1
    11    23    26    1
    12    26    27    1
    13    26    28    2
    14    26    29    2
    15    23    24    1
    16    24    25    1
    17     3     4   ar
    18     4     5   ar
    19     5     7    1
    20     7     8    2
    21     8     9    1
    22     9    10    2
    23    10    11    1
    24    11    12    2
    25    12    13    1
    26    13    14    2
    27    14    15    1
    28     5     6   ar
    29    22    17    1
    30     6     1   ar
    31    25    23    1
    32    15     7    1
    33    15    11    1
    34    28    30    1
@<TRIPOS>MOLECULE
*****
 30 34 0 0 0
SMALL
GASTEIGER

@<TRIPOS>ATOM
      1 C          63.6404   88.4392   13.2963 C.ar    1  UNL1        0.1346
      2 C          64.0358   87.1637   13.9794 C.ar    1  UNL1        0.0500
      3 C          63.5596   85.8465   13.4423 C.ar    1  UNL1        0.0752
      4 N          62.6882   85.8049   12.2221 N.ar    1  UNL1       -0.2302
      5 C          62.2928   87.0806   11.5390 C.ar    1  UNL1        0.1603
      6 N          62.7689   88.3977   12.0761 N.ar    1  UNL1       -0.2122
      7 C          61.4214   87.0390   10.3188 C.2     1  UNL1        0.0332
      8 C          60.1574   87.8453   10.2720 C.2     1  UNL1        0.0501
      9 C          59.2860   87.8037    9.0519 C.2     1  UNL1        0.2355
     10 N          59.6785   86.9557    7.8784 N.2     1  UNL1       -0.0341
     11 C          60.9425   86.1494    7.9252 C.2     1  UNL1        0.3594
     12 N          61.5827   85.2282    6.9295 N.2     1  UNL1       -0.0344
     13 C          62.8499   84.7005    7.5343 C.2     1  UNL1        0.2320
     14 C          62.9928   85.2955    8.9038 C.2     1  UNL1        0.0409
     15 C          61.8139   86.1910    9.1454 C.3     1  UNL1        0.1630
     16 C          63.2006   89.1296   16.1825 C.3     1  UNL1        0.0241
     17 C          63.8966   90.1016   15.2765 C.3     1  UNL1        0.1038
     18 C          64.3727   91.4187   15.8135 C.3     1  UNL1        0.1618
     19 O          65.0686   92.3907   14.9075 O.3     1  UNL1       -0.3502
     20 C          65.2886   92.0456   13.4645 C.3     1  UNL1        0.1636
     21 C          64.8125   90.7284   12.9273 C.3     1  UNL1        0.1242
     22 N          64.1165   89.7564   13.8334 N.pl3   1  UNL1       -0.2897
     23 C          63.9550   84.5710   14.1254 C.3     1  UNL1        0.1119
     24 C          64.5361   83.6422   15.1500 C.3     1  UNL1        0.0204
     25 C          64.6271   85.1267   15.3459 C.3     1  UNL1        0.0204
     26 S          63.4203   83.5724   13.1421 S.3     1  UNL1        0.0687
     27 C          62.8855   82.5738   12.1589 C.3     1  UNL1        0.1170
     28 N          64.6761   83.6981   12.3314 N.2     1  UNL1       -0.2504
     29 O          62.1644   83.4467   13.9527 O.2     1  UNL1       -0.2461
     30 H          65.3922   84.3070   12.6243 H       1  UNL1        0.1971
@<TRIPOS>BOND
     1    17    16    1
     2    17    18    1
     3    18    19    1
     4    19    20    1
     5    20    21    1
     6    21    22    1
     7    22     1    1
     8     1     2   ar
     9     2     3   ar
    10     3    23    1
    11    23    26    1
    12    26    27    1
    13    26    28    2
    14    26    29    2
    15    23    24    1
    16    24    25    1
    17     3     4   ar
    18     4     5   ar
    19     5     7    1
    20     7     8    2
    21     8     9    1
    22     9    10    2
    23    10    11    1
    24    11    12    2
    25    12    13    1
    26    13    14    2
    27    14    15    1
    28     5     6   ar
    29    22    17    1
    30     6     1   ar
    31    25    23    1
    32    15     7    1
    33    15    11    1
    34    28    30    1
@<TRIPOS>MOLECULE
*****
 30 34 0 0 0
SMALL
GASTEIGER

@<TRIPOS>ATOM
      1 C          65.4110   92.8678   11.2742 C.ar    1  UNL1        0.1346
      2 C          65.6967   92.8621   12.7467 C.ar    1  UNL1        0.0500
      3 C          64.9676   91.9107   13.6485 C.ar    1  UNL1        0.0752
      4 N          63.9529   90.9650   13.0778 N.ar    1  UNL1       -0.2302
      5 C          63.6672   90.9706   11.6052 C.ar    1  UNL1        0.1603
      6 N          64.3962   91.9220   10.7034 N.ar    1  UNL1       -0.2122
      7 C          62.6524   90.0248   11.0345 C.2     1  UNL1        0.0332
      8 C          61.6829   90.5031    9.9946 C.2     1  UNL1        0.0501
      9 C          60.6682   89.5574    9.4239 C.2     1  UNL1        0.2355
     10 N          60.6228   88.1333    9.8931 N.2     1  UNL1       -0.0341
     11 C          61.5922   87.6551   10.9330 C.2     1  UNL1        0.3594
     12 N          61.7860   86.3183   11.5853 N.2     1  UNL1       -0.0344
     13 C          62.9206   86.4379   12.5591 C.2     1  UNL1        0.2320
     14 C          63.4280   87.8486   12.5087 C.2     1  UNL1        0.0409
     15 C          62.6070   88.6008   11.5037 C.3     1  UNL1        0.1630
     16 C          67.9098   91.9851    9.8681 C.3     1  UNL1        0.0241
     17 C          67.3895   93.3779    9.6694 C.3     1  UNL1        0.1038
     18 C          68.1185   94.3293    8.7676 C.3     1  UNL1        0.1618
     19 O          67.5983   95.7220    8.5689 O.3     1  UNL1       -0.3502
     20 C          66.3490   96.1635    9.2718 C.3     1  UNL1        0.1636
     21 C          65.6198   95.2120   10.1737 C.3     1  UNL1        0.1242
     22 N          66.1401   93.8192   10.3724 N.pl3   1  UNL1       -0.2897
     23 C          65.2533   91.9050   15.1210 C.3     1  UNL1        0.1119
     24 C          65.8771   92.2636   16.4373 C.3     1  UNL1        0.0204
     25 C          66.3260   92.9518   15.1822 C.3     1  UNL1        0.0204
     26 S          64.2798   90.8563   15.5712 S.3     1  UNL1        0.0687
     27 C          63.3064   89.8077   16.0213 C.3     1  UNL1        0.1170
     28 N          65.0971   89.8028   14.8840 N.2     1  UNL1       -0.2504
     29 O          63.4626   91.9099   16.2584 O.2     1  UNL1       -0.2461
     30 H          65.9186   90.0531   14.4026 H       1  UNL1        0.1971
@<TRIPOS>BOND
     1    17    16    1
     2    17    18    1
     3    18    19    1
     4    19    20    1
     5    20    21    1
     6    21    22    1
     7    22     1    1
     8     1     2   ar
     9     2     3   ar
    10     3    23    1
    11    23    26    1
    12    26    27    1
    13    26    28    2
    14    26    29    2
    15    23    24    1
    16    24    25    1
    17     3     4   ar
    18     4     5   ar
    19     5     7    1
    20     7     8    2
    21     8     9    1
    22     9    10    2
    23    10    11    1
    24    11    12    2
    25    12    13    1
    26    13    14    2
    27    14    15    1
    28     5     6   ar
    29    22    17    1
    30     6     1   ar
    31    25    23    1
    32    15     7    1
    33    15    11    1
    34    28    30    1
@<TRIPOS>MOLECULE
*****
 30 34 0 0 0
SMALL
GASTEIGER

@<TRIPOS>ATOM
      1 C          63.4583   88.3158   12.7231 C.ar    1  UNL1        0.1346
      2 C          63.7854   87.1042   13.5447 C.ar    1  UNL1        0.0500
      3 C          63.2459   85.7617   13.1489 C.ar    1  UNL1        0.0752
      4 N          62.3794   85.6308   11.9316 N.ar    1  UNL1       -0.2302
      5 C          62.0522   86.8425   11.1100 C.ar    1  UNL1        0.1603
      6 N          62.5917   88.1850   11.5058 N.ar    1  UNL1       -0.2122
      7 C          61.1857   86.7116    9.8927 C.2     1  UNL1        0.0332
      8 C          59.8407   87.3745    9.8547 C.2     1  UNL1        0.0501
      9 C          58.9741   87.2436    8.6375 C.2     1  UNL1        0.2355
     10 N          59.4525   86.4498    7.4580 N.2     1  UNL1       -0.0341
     11 C          60.7975   85.7868    7.4960 C.2     1  UNL1        0.3594
     12 N          61.5309   84.9464    6.4930 N.2     1  UNL1       -0.0344
     13 C          62.8507   84.5580    7.0905 C.2     1  UNL1        0.2320
     14 C          62.9331   85.1582    8.4627 C.2     1  UNL1        0.0409
     15 C          61.6641   85.9177    8.7133 C.3     1  UNL1        0.1630
     16 C          63.3275   90.6122   10.7970 C.3     1  UNL1        0.0241
     17 C          63.9324   90.8065   12.1558 C.3     1  UNL1        0.1038
     18 C          64.4719   92.1490   12.5516 C.3     1  UNL1        0.1618
     19 O          65.0767   92.3434   13.9104 O.3     1  UNL1       -0.3502
     20 C          65.1422   91.1953   14.8735 C.3     1  UNL1        0.1636
     21 C          64.6027   89.8527   14.4777 C.3     1  UNL1        0.1242
     22 N          63.9978   89.6583   13.1189 N.pl3   1  UNL1       -0.2897
     23 C          63.5730   84.5501   13.9705 C.3     1  UNL1        0.1119
     24 C          63.9853   83.1494   14.3142 C.3     1  UNL1        0.0204
     25 C          63.9319   83.5849   12.8798 C.3     1  UNL1        0.0204
     26 S          63.3278   85.0946   15.3465 S.3     1  UNL1        0.0687
     27 C          63.0825   85.6390   16.7224 C.3     1  UNL1        0.1170
     28 N          64.8067   85.2328   15.5554 N.2     1  UNL1       -0.2504
     29 O          61.8488   84.9563   15.1376 O.2     1  UNL1       -0.2461
     30 H          65.4315   84.9687   14.8418 H       1  UNL1        0.1971
@<TRIPOS>BOND
     1    17    16    1
     2    17    18    1
     3    18    19    1
     4    19    20    1
     5    20    21    1
     6    21    22    1
     7    22     1    1
     8     1     2   ar
     9     2     3   ar
    10     3    23    1
    11    23    26    1
    12    26    27    1
    13    26    28    2
    14    26    29    2
    15    23    24    1
    16    24    25    1
    17     3     4   ar
    18     4     5   ar
    19     5     7    1
    20     7     8    2
    21     8     9    1
    22     9    10    2
    23    10    11    1
    24    11    12    2
    25    12    13    1
    26    13    14    2
    27    14    15    1
    28     5     6   ar
    29    22    17    1
    30     6     1   ar
    31    25    23    1
    32    15     7    1
    33    15    11    1
    34    28    30    1
