@<TRIPOS>MOLECULE
*****
 25 28 0 0 0
SMALL
GASTEIGER

@<TRIPOS>ATOM
      1 O          65.2687   92.1522   11.3982 O.2     1  UNL1       -0.2679
      2 C          64.4083   91.3652   12.3418 C.2     1  UNL1        0.2713
      3 C          63.2012   90.6384   11.8273 C.ar    1  UNL1        0.1330
      4 C          62.6139   90.5157   10.4526 C.ar    1  UNL1        0.0435
      5 C          61.3905   89.6528   10.5466 C.ar    1  UNL1        0.1238
      6 N          61.2217   89.2423   11.9795 N.ar    1  UNL1       -0.1698
      7 N          62.3408   89.8515   12.7710 N.ar    1  UNL1       -0.2449
      8 C          62.6876   89.7912   14.2291 C.3     1  UNL1        0.1495
      9 C          63.8947   90.5180   14.7436 C.3     1  UNL1        0.1263
     10 N          64.7550   91.3049   13.8000 N.am    1  UNL1       -0.2370
     11 C          65.9622   92.0317   14.3145 C.ar    1  UNL1        0.1379
     12 C          67.0785   91.2671   14.9621 C.ar    1  UNL1        0.0370
     13 C          68.2856   91.9938   15.4766 C.ar    1  UNL1        0.0341
     14 C          68.3765   93.4852   15.3435 C.ar    1  UNL1        0.1593
     15 F          69.5835   94.2119   15.8579 F       1  UNL1       -0.2025
     16 C          67.2602   94.2497   14.6959 C.ar    1  UNL1        0.1298
     17 N          66.0531   93.5230   14.1814 N.ar    1  UNL1       -0.2264
     18 C          60.4933   89.2680    9.4077 C.3     1  UNL1        0.2526
     19 O          59.9962   87.8578    9.2880 O.3     1  UNL1       -0.4689
     20 C          60.8489   86.8156    8.6273 C.ar    1  UNL1        0.1391
     21 C          62.2290   86.5371    9.1450 C.ar    1  UNL1        0.0369
     22 C          63.0818   85.4949    8.4843 C.ar    1  UNL1        0.0031
     23 C          62.5545   84.7311    7.3060 C.ar    1  UNL1        0.0002
     24 C          61.1745   85.0095    6.7883 C.ar    1  UNL1        0.0031
     25 C          60.3217   86.0517    7.4489 C.ar    1  UNL1        0.0369
@<TRIPOS>BOND
     1     1     2    2
     2     2     3    1
     3     3     4   ar
     4     4     5   ar
     5     5    18    1
     6    18    19    1
     7    19    20    1
     8    20    21   ar
     9    21    22   ar
    10    22    23   ar
    11    23    24   ar
    12    24    25   ar
    13     5     6   ar
    14     6     7   ar
    15     7     8    1
    16     8     9    1
    17     9    10    1
    18    10    11    1
    19    11    12   ar
    20    12    13   ar
    21    13    14   ar
    22    14    15    1
    23    14    16   ar
    24    16    17   ar
    25    10     2   am
    26    17    11   ar
    27     7     3   ar
    28    25    20   ar
@<TRIPOS>MOLECULE
*****
 25 28 0 0 0
SMALL
GASTEIGER

@<TRIPOS>ATOM
      1 O          64.2645   90.0006   14.5222 O.2     1  UNL1       -0.2679
      2 C          64.1868   90.6438   13.1693 C.2     1  UNL1        0.2713
      3 C          63.1118   90.2364   12.2057 C.ar    1  UNL1        0.1330
      4 C          61.9979   89.2371   12.3085 C.ar    1  UNL1        0.0435
      5 C          61.2319   89.2627   11.0191 C.ar    1  UNL1        0.1238
      6 N          61.8723   90.2778   10.1195 N.ar    1  UNL1       -0.1698
      7 N          63.0342   90.8796   10.8528 N.ar    1  UNL1       -0.2449
      8 C          64.0316   91.9302   10.4635 C.3     1  UNL1        0.1495
      9 C          65.1066   92.3375   11.4271 C.3     1  UNL1        0.1263
     10 N          65.1842   91.6944   12.7799 N.am    1  UNL1       -0.2370
     11 C          66.2592   92.1018   13.7435 C.ar    1  UNL1        0.1379
     12 C          67.7019   91.8925   13.3900 C.ar    1  UNL1        0.0370
     13 C          68.7769   92.2999   14.3536 C.ar    1  UNL1        0.0341
     14 C          68.4092   92.9166   15.6705 C.ar    1  UNL1        0.1593
     15 F          69.4841   93.3240   16.6341 F       1  UNL1       -0.2025
     16 C          66.9665   93.1259   16.0240 C.ar    1  UNL1        0.1298
     17 N          65.8916   92.7186   15.0604 N.ar    1  UNL1       -0.2264
     18 C          60.0354   88.4209   10.6876 C.3     1  UNL1        0.2526
     19 O          60.1379   87.3509    9.6415 O.3     1  UNL1       -0.4689
     20 C          61.2464   86.3423    9.7063 C.ar    1  UNL1        0.1391
     21 C          62.0208   85.9985    8.4686 C.ar    1  UNL1        0.0369
     22 C          63.1293   84.9900    8.5334 C.ar    1  UNL1        0.0031
     23 C          63.4633   84.3253    9.8359 C.ar    1  UNL1        0.0002
     24 C          62.6889   84.6691   11.0736 C.ar    1  UNL1        0.0031
     25 C          61.5804   85.6776   11.0088 C.ar    1  UNL1        0.0369
@<TRIPOS>BOND
     1     1     2    2
     2     2     3    1
     3     3     4   ar
     4     4     5   ar
     5     5    18    1
     6    18    19    1
     7    19    20    1
     8    20    21   ar
     9    21    22   ar
    10    22    23   ar
    11    23    24   ar
    12    24    25   ar
    13     5     6   ar
    14     6     7   ar
    15     7     8    1
    16     8     9    1
    17     9    10    1
    18    10    11    1
    19    11    12   ar
    20    12    13   ar
    21    13    14   ar
    22    14    15    1
    23    14    16   ar
    24    16    17   ar
    25    10     2   am
    26    17    11   ar
    27     7     3   ar
    28    25    20   ar
@<TRIPOS>MOLECULE
*****
 25 28 0 0 0
SMALL
GASTEIGER

@<TRIPOS>ATOM
      1 O          64.0110   85.6031   14.3644 O.2     1  UNL1       -0.2679
      2 C          63.3066   86.0916   13.1334 C.2     1  UNL1        0.2713
      3 C          63.3132   87.5530   12.7955 C.ar    1  UNL1        0.1330
      4 C          63.9249   88.7388   13.4808 C.ar    1  UNL1        0.0435
      5 C          63.5986   89.9600   12.6734 C.ar    1  UNL1        0.1238
      6 N          62.7853   89.5290   11.4890 N.ar    1  UNL1       -0.1698
      7 N          62.6089   88.0414   11.5645 N.ar    1  UNL1       -0.2449
      8 C          61.8979   87.0683   10.6714 C.3     1  UNL1        0.1495
      9 C          61.8913   85.6069   11.0093 C.3     1  UNL1        0.1263
     10 N          62.5956   85.1185   12.2402 N.am    1  UNL1       -0.2370
     11 C          62.5889   83.6570   12.5781 C.ar    1  UNL1        0.1379
     12 C          63.0038   82.6475   11.5492 C.ar    1  UNL1        0.0370
     13 C          62.9972   81.1860   11.8870 C.ar    1  UNL1        0.0341
     14 C          62.5757   80.7342   13.2538 C.ar    1  UNL1        0.1593
     15 F          62.5690   79.2728   13.5918 F       1  UNL1       -0.2025
     16 C          62.1608   81.7437   14.2828 C.ar    1  UNL1        0.1298
     17 N          62.1674   83.2051   13.9449 N.ar    1  UNL1       -0.2264
     18 C          64.0129   91.3656   12.9939 C.3     1  UNL1        0.2526
     19 O          64.4532   91.7193   14.3835 O.3     1  UNL1       -0.4689
     20 C          65.8946   92.0321   14.6568 C.ar    1  UNL1        0.1391
     21 C          66.9335   91.7543   13.6111 C.ar    1  UNL1        0.0369
     22 C          68.3749   92.0670   13.8842 C.ar    1  UNL1        0.0031
     23 C          68.7774   92.6575   15.2030 C.ar    1  UNL1        0.0002
     24 C          67.7385   92.9353   16.2487 C.ar    1  UNL1        0.0031
     25 C          66.2971   92.6226   15.9756 C.ar    1  UNL1        0.0369
@<TRIPOS>BOND
     1     1     2    2
     2     2     3    1
     3     3     4   ar
     4     4     5   ar
     5     5    18    1
     6    18    19    1
     7    19    20    1
     8    20    21   ar
     9    21    22   ar
    10    22    23   ar
    11    23    24   ar
    12    24    25   ar
    13     5     6   ar
    14     6     7   ar
    15     7     8    1
    16     8     9    1
    17     9    10    1
    18    10    11    1
    19    11    12   ar
    20    12    13   ar
    21    13    14   ar
    22    14    15    1
    23    14    16   ar
    24    16    17   ar
    25    10     2   am
    26    17    11   ar
    27     7     3   ar
    28    25    20   ar
@<TRIPOS>MOLECULE
*****
 25 28 0 0 0
SMALL
GASTEIGER

@<TRIPOS>ATOM
      1 O          62.5302   85.7076   11.4370 O.2     1  UNL1       -0.2679
      2 C          63.2500   85.9824   12.7240 C.2     1  UNL1        0.2713
      3 C          63.5726   87.3937   13.1165 C.ar    1  UNL1        0.1330
      4 C          63.3090   88.7079   12.4431 C.ar    1  UNL1        0.0435
      5 C          63.8660   89.7948   13.3140 C.ar    1  UNL1        0.1238
      6 N          64.4738   89.1524   14.5256 N.ar    1  UNL1       -0.1698
      7 N          64.2924   87.6684   14.4035 N.ar    1  UNL1       -0.2449
      8 C          64.6897   86.5318   15.2980 C.3     1  UNL1        0.1495
      9 C          64.3672   85.1204   14.9055 C.3     1  UNL1        0.1263
     10 N          63.6474   84.8457   13.6186 N.am    1  UNL1       -0.2370
     11 C          63.3249   83.4343   13.2261 C.ar    1  UNL1        0.1379
     12 C          62.4781   82.5812   14.1234 C.ar    1  UNL1        0.0370
     13 C          62.1556   81.1698   13.7309 C.ar    1  UNL1        0.0341
     14 C          62.6798   80.6116   12.4411 C.ar    1  UNL1        0.1593
     15 F          62.3573   79.2003   12.0486 F       1  UNL1       -0.2025
     16 C          63.5265   81.4648   11.5438 C.ar    1  UNL1        0.1298
     17 N          63.8491   82.8761   11.9363 N.ar    1  UNL1       -0.2264
     18 C          63.8229   91.2659   13.0242 C.3     1  UNL1        0.2526
     19 O          65.0907   92.0083   12.7219 O.3     1  UNL1       -0.4689
     20 C          66.1391   92.1653   13.7831 C.ar    1  UNL1        0.1391
     21 C          65.7384   92.4973   15.1899 C.ar    1  UNL1        0.0369
     22 C          66.7867   92.6542   16.2512 C.ar    1  UNL1        0.0031
     23 C          68.2358   92.4792   15.9057 C.ar    1  UNL1        0.0002
     24 C          68.6366   92.1472   14.4989 C.ar    1  UNL1        0.0031
     25 C          67.5883   91.9903   13.4376 C.ar    1  UNL1        0.0369
@<TRIPOS>BOND
     1     1     2    2
     2     2     3    1
     3     3     4   ar
     4     4     5   ar
     5     5    18    1
     6    18    19    1
     7    19    20    1
     8    20    21   ar
     9    21    22   ar
    10    22    23   ar
    11    23    24   ar
    12    24    25   ar
    13     5     6   ar
    14     6     7   ar
    15     7     8    1
    16     8     9    1
    17     9    10    1
    18    10    11    1
    19    11    12   ar
    20    12    13   ar
    21    13    14   ar
    22    14    15    1
    23    14    16   ar
    24    16    17   ar
    25    10     2   am
    26    17    11   ar
    27     7     3   ar
    28    25    20   ar
@<TRIPOS>MOLECULE
*****
 25 28 0 0 0
SMALL
GASTEIGER

@<TRIPOS>ATOM
      1 O          64.3477   85.2062   14.8547 O.2     1  UNL1       -0.2679
      2 C          63.7520   86.0071   13.7349 C.2     1  UNL1        0.2713
      3 C          63.8940   87.5003   13.7227 C.ar    1  UNL1        0.1330
      4 C          64.5610   88.4529   14.6702 C.ar    1  UNL1        0.0435
      5 C          64.3776   89.8425   14.1360 C.ar    1  UNL1        0.1238
      6 N          63.5972   89.7488   12.8584 N.ar    1  UNL1       -0.1698
      7 N          63.2983   88.3012   12.6030 N.ar    1  UNL1       -0.2449
      8 C          62.5606   87.6089   11.4955 C.3     1  UNL1        0.1495
      9 C          62.4187   86.1157   11.5077 C.3     1  UNL1        0.1263
     10 N          63.0144   85.3148   12.6274 N.am    1  UNL1       -0.2370
     11 C          62.8724   83.8215   12.6396 C.ar    1  UNL1        0.1379
     12 C          62.3137   83.1311   13.8484 C.ar    1  UNL1        0.0370
     13 C          62.1717   81.6379   13.8606 C.ar    1  UNL1        0.0341
     14 C          62.5885   80.8351   12.6641 C.ar    1  UNL1        0.1593
     15 F          62.4466   79.3419   12.6762 F       1  UNL1       -0.2025
     16 C          63.1473   81.5255   11.4553 C.ar    1  UNL1        0.1298
     17 N          63.2892   83.0187   11.4430 N.ar    1  UNL1       -0.2264
     18 C          64.8854   91.1044   14.7683 C.3     1  UNL1        0.2526
     19 O          65.0267   92.3510   13.9462 O.3     1  UNL1       -0.4689
     20 C          65.9369   92.3639   12.7539 C.ar    1  UNL1        0.1391
     21 C          67.3621   91.9175   12.8935 C.ar    1  UNL1        0.0369
     22 C          68.2723   91.9304   11.7013 C.ar    1  UNL1        0.0031
     23 C          67.7573   92.3896   10.3694 C.ar    1  UNL1        0.0002
     24 C          66.3320   92.8360   10.2298 C.ar    1  UNL1        0.0031
     25 C          65.4219   92.8231   11.4221 C.ar    1  UNL1        0.0369
@<TRIPOS>BOND
     1     1     2    2
     2     2     3    1
     3     3     4   ar
     4     4     5   ar
     5     5    18    1
     6    18    19    1
     7    19    20    1
     8    20    21   ar
     9    21    22   ar
    10    22    23   ar
    11    23    24   ar
    12    24    25   ar
    13     5     6   ar
    14     6     7   ar
    15     7     8    1
    16     8     9    1
    17     9    10    1
    18    10    11    1
    19    11    12   ar
    20    12    13   ar
    21    13    14   ar
    22    14    15    1
    23    14    16   ar
    24    16    17   ar
    25    10     2   am
    26    17    11   ar
    27     7     3   ar
    28    25    20   ar
@<TRIPOS>MOLECULE
*****
 25 28 0 0 0
SMALL
GASTEIGER

@<TRIPOS>ATOM
      1 O          62.2958   88.8599   10.1002 O.2     1  UNL1       -0.2679
      2 C          62.6728   87.8630   11.1557 C.2     1  UNL1        0.2713
      3 C          63.1057   88.3345   12.5123 C.ar    1  UNL1        0.1330
      4 C          63.2576   89.7077   13.0963 C.ar    1  UNL1        0.0435
      5 C          63.7284   89.5595   14.5128 C.ar    1  UNL1        0.1238
      6 N          63.8675   88.0947   14.8042 N.ar    1  UNL1       -0.1698
      7 N          63.4826   87.3376   13.5678 N.ar    1  UNL1       -0.2449
      8 C          63.4267   85.8692   13.2667 C.3     1  UNL1        0.1495
      9 C          62.9938   85.3977   11.9101 C.3     1  UNL1        0.1263
     10 N          62.6169   86.3945   10.8547 N.am    1  UNL1       -0.2370
     11 C          62.1840   85.9230    9.4980 C.ar    1  UNL1        0.1379
     12 C          63.1506   85.1917    8.6145 C.ar    1  UNL1        0.0370
     13 C          62.7178   84.7202    7.2579 C.ar    1  UNL1        0.0341
     14 C          61.3182   84.9801    6.7849 C.ar    1  UNL1        0.1593
     15 F          60.8853   84.5086    5.4283 F       1  UNL1       -0.2025
     16 C          60.3516   85.7114    7.6684 C.ar    1  UNL1        0.1298
     17 N          60.7844   86.1829    9.0250 N.ar    1  UNL1       -0.2264
     18 C          64.0107   90.6795   15.4698 C.3     1  UNL1        0.2526
     19 O          64.5814   91.9716   14.9650 O.3     1  UNL1       -0.4689
     20 C          66.0668   92.1795   14.9482 C.ar    1  UNL1        0.1391
     21 C          66.7561   92.7622   16.1463 C.ar    1  UNL1        0.0369
     22 C          68.2415   92.9701   16.1296 C.ar    1  UNL1        0.0031
     23 C          69.0377   92.5955   14.9149 C.ar    1  UNL1        0.0002
     24 C          68.3484   92.0128   13.7168 C.ar    1  UNL1        0.0031
     25 C          66.8630   91.8049   13.7334 C.ar    1  UNL1        0.0369
@<TRIPOS>BOND
     1     1     2    2
     2     2     3    1
     3     3     4   ar
     4     4     5   ar
     5     5    18    1
     6    18    19    1
     7    19    20    1
     8    20    21   ar
     9    21    22   ar
    10    22    23   ar
    11    23    24   ar
    12    24    25   ar
    13     5     6   ar
    14     6     7   ar
    15     7     8    1
    16     8     9    1
    17     9    10    1
    18    10    11    1
    19    11    12   ar
    20    12    13   ar
    21    13    14   ar
    22    14    15    1
    23    14    16   ar
    24    16    17   ar
    25    10     2   am
    26    17    11   ar
    27     7     3   ar
    28    25    20   ar
@<TRIPOS>MOLECULE
*****
 25 28 0 0 0
SMALL
GASTEIGER

@<TRIPOS>ATOM
      1 O          62.3491   90.3466   10.5113 O.2     1  UNL1       -0.2679
      2 C          62.8658   89.4214   11.5730 C.2     1  UNL1        0.2713
      3 C          63.6905   89.9625   12.7031 C.ar    1  UNL1        0.1330
      4 C          64.1528   91.3507   13.0331 C.ar    1  UNL1        0.0435
      5 C          64.9552   91.2834   14.2987 C.ar    1  UNL1        0.1238
      6 N          64.9887   89.8536   14.7508 N.ar    1  UNL1       -0.1698
      7 N          64.2070   89.0372   13.7647 N.ar    1  UNL1       -0.2449
      8 C          63.8989   87.5707   13.6962 C.3     1  UNL1        0.1495
      9 C          63.0742   87.0296   12.5661 C.3     1  UNL1        0.1263
     10 N          62.5577   87.9549   11.5046 N.am    1  UNL1       -0.2370
     11 C          61.7329   87.4137   10.3745 C.ar    1  UNL1        0.1379
     12 C          62.3481   86.4744    9.3798 C.ar    1  UNL1        0.0370
     13 C          61.5234   85.9333    8.2497 C.ar    1  UNL1        0.0341
     14 C          60.0836   86.3314    8.1143 C.ar    1  UNL1        0.1593
     15 F          59.2589   85.7904    6.9843 F       1  UNL1       -0.2025
     16 C          59.4684   87.2707    9.1090 C.ar    1  UNL1        0.1298
     17 N          60.2931   87.8119   10.2390 N.ar    1  UNL1       -0.2264
     18 C          65.6092   92.4425   14.9907 C.3     1  UNL1        0.2526
     19 O          66.7610   93.1508   14.3413 O.3     1  UNL1       -0.4689
     20 C          66.8191   93.2751   12.8476 C.ar    1  UNL1        0.1391
     21 C          67.5159   92.2250   12.0342 C.ar    1  UNL1        0.0369
     22 C          67.5741   92.3492   10.5405 C.ar    1  UNL1        0.0031
     23 C          66.9354   93.5236    9.8601 C.ar    1  UNL1        0.0002
     24 C          66.2386   94.5738   10.6735 C.ar    1  UNL1        0.0031
     25 C          66.1805   94.4495   12.1672 C.ar    1  UNL1        0.0369
@<TRIPOS>BOND
     1     1     2    2
     2     2     3    1
     3     3     4   ar
     4     4     5   ar
     5     5    18    1
     6    18    19    1
     7    19    20    1
     8    20    21   ar
     9    21    22   ar
    10    22    23   ar
    11    23    24   ar
    12    24    25   ar
    13     5     6   ar
    14     6     7   ar
    15     7     8    1
    16     8     9    1
    17     9    10    1
    18    10    11    1
    19    11    12   ar
    20    12    13   ar
    21    13    14   ar
    22    14    15    1
    23    14    16   ar
    24    16    17   ar
    25    10     2   am
    26    17    11   ar
    27     7     3   ar
    28    25    20   ar
@<TRIPOS>MOLECULE
*****
 25 28 0 0 0
SMALL
GASTEIGER

@<TRIPOS>ATOM
      1 O          62.7179   90.9084    9.2124 O.2     1  UNL1       -0.2679
      2 C          63.0721   90.3289   10.5499 C.2     1  UNL1        0.2713
      3 C          63.9610   91.0923   11.4864 C.ar    1  UNL1        0.1330
      4 C          64.6333   92.4279   11.3672 C.ar    1  UNL1        0.0435
      5 C          65.4029   92.6738   12.6310 C.ar    1  UNL1        0.1238
      6 N          65.2063   91.4902   13.5313 N.ar    1  UNL1       -0.1698
      7 N          64.3151   90.5128   12.8239 N.ar    1  UNL1       -0.2449
      8 C          63.7803   89.1699   13.2248 C.3     1  UNL1        0.1495
      9 C          62.8914   88.4066   12.2883 C.3     1  UNL1        0.1263
     10 N          62.5373   88.9860   10.9509 N.am    1  UNL1       -0.2370
     11 C          61.6484   88.2226   10.0143 C.ar    1  UNL1        0.1379
     12 C          62.0623   86.8661    9.5258 C.ar    1  UNL1        0.0370
     13 C          61.1734   86.1028    8.5893 C.ar    1  UNL1        0.0341
     14 C          59.8706   86.6959    8.1412 C.ar    1  UNL1        0.1593
     15 F          58.9816   85.9326    7.2047 F       1  UNL1       -0.2025
     16 C          59.4566   88.0524    8.6297 C.ar    1  UNL1        0.1298
     17 N          60.3455   88.8158    9.5662 N.ar    1  UNL1       -0.2264
     18 C          66.2249   93.8898   12.9403 C.3     1  UNL1        0.2526
     19 O          67.2645   94.3599   11.9665 O.3     1  UNL1       -0.4689
     20 C          66.8486   95.0363   10.6938 C.ar    1  UNL1        0.1391
     21 C          65.8730   96.1749   10.7339 C.ar    1  UNL1        0.0369
     22 C          65.4570   96.8513    9.4613 C.ar    1  UNL1        0.0031
     23 C          66.0167   96.3891    8.1486 C.ar    1  UNL1        0.0002
     24 C          66.9923   95.2504    8.1086 C.ar    1  UNL1        0.0031
     25 C          67.4082   94.5740    9.3812 C.ar    1  UNL1        0.0369
@<TRIPOS>BOND
     1     1     2    2
     2     2     3    1
     3     3     4   ar
     4     4     5   ar
     5     5    18    1
     6    18    19    1
     7    19    20    1
     8    20    21   ar
     9    21    22   ar
    10    22    23   ar
    11    23    24   ar
    12    24    25   ar
    13     5     6   ar
    14     6     7   ar
    15     7     8    1
    16     8     9    1
    17     9    10    1
    18    10    11    1
    19    11    12   ar
    20    12    13   ar
    21    13    14   ar
    22    14    15    1
    23    14    16   ar
    24    16    17   ar
    25    10     2   am
    26    17    11   ar
    27     7     3   ar
    28    25    20   ar
@<TRIPOS>MOLECULE
*****
 25 28 0 0 0
SMALL
GASTEIGER

@<TRIPOS>ATOM
      1 O          64.8737   88.8534   14.5614 O.2     1  UNL1       -0.2679
      2 C          64.3234   89.5178   13.3343 C.2     1  UNL1        0.2713
      3 C          63.4118   88.7596   12.4157 C.ar    1  UNL1        0.1330
      4 C          62.8828   87.3566   12.4598 C.ar    1  UNL1        0.0435
      5 C          62.0056   87.1541   11.2600 C.ar    1  UNL1        0.1238
      6 N          61.9925   88.4318   10.4744 N.ar    1  UNL1       -0.1698
      7 N          62.8616   89.4241   11.1886 N.ar    1  UNL1       -0.2449
      8 C          63.2230   90.8468   10.8801 C.3     1  UNL1        0.1495
      9 C          64.1346   91.6051   11.7988 C.3     1  UNL1        0.1263
     10 N          64.6848   90.9406   13.0258 N.am    1  UNL1       -0.2370
     11 C          65.5965   91.6990   13.9445 C.ar    1  UNL1        0.1379
     12 C          66.9655   92.0993   13.4801 C.ar    1  UNL1        0.0370
     13 C          67.8772   92.8576   14.3987 C.ar    1  UNL1        0.0341
     14 C          67.4199   93.2155   15.7817 C.ar    1  UNL1        0.1593
     15 F          68.3314   93.9738   16.7004 F       1  UNL1       -0.2025
     16 C          66.0509   92.8152   16.2461 C.ar    1  UNL1        0.1298
     17 N          65.1392   92.0569   15.3275 N.ar    1  UNL1       -0.2264
     18 C          61.2706   85.8949   10.9077 C.3     1  UNL1        0.2526
     19 O          61.9519   84.5655   11.0445 O.3     1  UNL1       -0.4689
     20 C          62.7061   84.2348   12.2983 C.ar    1  UNL1        0.1391
     21 C          64.1741   83.9340   12.2331 C.ar    1  UNL1        0.0369
     22 C          64.9284   83.6033   13.4868 C.ar    1  UNL1        0.0031
     23 C          64.2146   83.5734   14.8057 C.ar    1  UNL1        0.0002
     24 C          62.7465   83.8742   14.8709 C.ar    1  UNL1        0.0031
     25 C          61.9922   84.2049   13.6172 C.ar    1  UNL1        0.0369
@<TRIPOS>BOND
     1     1     2    2
     2     2     3    1
     3     3     4   ar
     4     4     5   ar
     5     5    18    1
     6    18    19    1
     7    19    20    1
     8    20    21   ar
     9    21    22   ar
    10    22    23   ar
    11    23    24   ar
    12    24    25   ar
    13     5     6   ar
    14     6     7   ar
    15     7     8    1
    16     8     9    1
    17     9    10    1
    18    10    11    1
    19    11    12   ar
    20    12    13   ar
    21    13    14   ar
    22    14    15    1
    23    14    16   ar
    24    16    17   ar
    25    10     2   am
    26    17    11   ar
    27     7     3   ar
    28    25    20   ar
