@<TRIPOS>MOLECULE
*****
 62 65 0 0 0
SMALL
GASTEIGER

@<TRIPOS>ATOM
      1 C          61.5471   92.1846    3.5709 C.3     1  UNL1        0.1953
      2 O          60.9782   91.2855    4.6283 O.3     1  UNL1       -0.4497
      3 C          60.8394   90.7060    6.0047 C.2     1  UNL1        0.3188
      4 O          59.7472   89.6964    5.8095 O.2     1  UNL1       -0.2500
      5 C          61.1549   90.5462    7.4625 C.3     1  UNL1        0.1263
      6 C          60.2009   89.5923    7.5158 C.3     1  UNL1        0.0142
      7 C          61.8699   90.8338    8.7494 C.3     1  UNL1        0.1306
      8 C          62.8609   91.5190    9.6429 C.3     1  UNL1        0.0575
      9 C          62.6093   90.8476   10.9605 C.3     1  UNL1        0.0051
     10 C          63.9566   92.4834    9.9885 C.3     1  UNL1        0.1448
     11 C          64.9674   93.5603    9.7265 C.3     1  UNL1        0.1183
     12 C          65.9885   94.3019   10.5371 C.3     1  UNL1        0.0321
     13 C          65.7186   94.5633    8.9022 C.3     1  UNL1        0.0387
     14 C          66.0803   95.3192    7.6581 C.3     1  UNL1        0.0789
     15 C          67.1674   96.2280    8.1503 C.3     1  UNL1        0.0096
     16 C          65.9900   95.6971    6.2093 C.2     1  UNL1        0.2221
     17 O          67.0396   96.7632    6.0990 O.2     1  UNL1       -0.2751
     18 N          65.4633   95.6318    4.8064 N.am    1  UNL1       -0.3035
     19 C          64.5912   95.1345    3.6918 C.3     1  UNL1        0.1008
     20 C          65.0591   95.9665    2.5348 C.3     1  UNL1        0.0239
     21 C          63.5245   94.2912    3.0584 C.3     1  UNL1        0.1560
     22 O          63.5489   94.7726    1.6379 O.3     1  UNL1       -0.3803
     23 C          62.4478   93.2478    3.0157 C.3     1  UNL1        0.1509
     24 C          61.5315   92.6850    1.9698 C.3     1  UNL1        0.0356
     25 O          62.6620   93.8894    1.6768 O.3     1  UNL1       -0.3808
     26 H          66.0083   96.3136    4.3511 H       1  UNL1        0.1495
     27 H          64.2221   95.4644    1.5424 H       1  UNL1        0.2105
     28 H          63.3635   94.5557    1.7461 H       1  UNL1        0.2105
     29 C          59.7776   92.7587    1.7573 C.3     1  UNL1        0.0039
     30 C          60.7492   91.7900    2.3636 C.3     1  UNL1        0.0462
     31 O          64.9813   93.1128   11.1582 O.3     1  UNL1       -0.3535
     32 C          65.2518   93.7331   11.5795 C.3     1  UNL1        0.1740
     33 O          61.2062   89.8774    9.6954 O.3     1  UNL1       -0.3323
     34 C          61.7011   88.4656    9.8046 C.3     1  UNL1        0.2375
     35 C          62.1191   87.9183   11.1372 C.3     1  UNL1        0.0910
     36 C          62.6140   86.5065   11.2464 C.3     1  UNL1        0.1246
     37 C          63.1464   85.2425   11.8537 C.3     1  UNL1        0.0324
     38 C          62.6909   85.6420   10.0231 C.3     1  UNL1        0.1623
     39 O          63.1858   84.2303   10.1322 O.3     1  UNL1       -0.3796
     40 C          62.2730   86.1893    8.6904 C.3     1  UNL1        0.1468
     41 C          62.3499   85.3248    7.4671 C.3     1  UNL1        0.0348
     42 O          61.7781   87.6011    8.5812 O.3     1  UNL1       -0.3304
     43 H          63.1724   83.8143    9.2560 H       1  UNL1        0.2105
     44 O          62.7219   86.9321   12.6807 O.3     1  UNL1       -0.3532
     45 C          63.7509   87.9451   13.0870 C.3     1  UNL1        0.1740
     46 O          64.1605   92.2130   11.4498 O.3     1  UNL1       -0.3278
     47 C          65.5492   92.0842   12.0020 C.3     1  UNL1        0.2785
     48 O          66.7059   91.8511   11.0759 O.3     1  UNL1       -0.3302
     49 C          68.0946   91.7222   11.6280 C.3     1  UNL1        0.1198
     50 C          69.2513   91.4891   10.7019 C.3     1  UNL1        0.0322
     51 C          68.3266   91.8265   13.1063 C.3     1  UNL1        0.0534
     52 C          67.1699   92.0597   14.0325 C.3     1  UNL1        0.1245
     53 C          65.7811   92.1885   13.4802 C.3     1  UNL1        0.2426
     54 O          64.8442   92.4136   14.6298 O.2     1  UNL1       -0.4466
     55 C          65.6540   92.4239   15.8925 C.2     1  UNL1        0.2832
     56 N          65.1201   92.6187   17.2807 N.2     1  UNL1       -0.2281
     57 N          67.0913   92.2051   15.5233 N.pl3   1  UNL1       -0.2603
     58 C          68.2470   92.1428   16.4774 C.3     1  UNL1        0.1166
     59 C          63.6504   92.8277   17.4966 C.3     1  UNL1        0.0891
     60 C          63.9222   94.2118   18.0066 C.3     1  UNL1        0.0245
     61 C          63.3787   91.4435   16.9865 C.3     1  UNL1        0.0245
     62 C          62.1809   93.0367   17.7124 C.3     1  UNL1        0.0245
@<TRIPOS>BOND
     1    29    30    1
     2     1    30    1
     3     1     2    1
     4     2     3    1
     5     3     4    2
     6     3     5    1
     7     5     6    1
     8     5     7    1
     9     7    33    1
    10    34    33    1
    11    34    35    1
    12    35    36    1
    13    36    37    1
    14    36    44    1
    15    44    45    1
    16    36    38    1
    17    38    39    1
    18    38    40    1
    19    40    41    1
    20    40    42    1
    21     7     8    1
    22     8     9    1
    23     8    10    1
    24    10    46    1
    25    47    46    1
    26    47    48    1
    27    48    49    1
    28    49    50    1
    29    49    51    1
    30    52    51    1
    31    52    53    1
    32    53    54    1
    33    54    55    1
    34    55    56    2
    35    56    59    1
    36    59    60    1
    37    59    61    1
    38    59    62    1
    39    55    57    1
    40    57    58    1
    41    10    11    1
    42    11    12    1
    43    11    31    1
    44    31    32    1
    45    11    13    1
    46    13    14    1
    47    14    15    1
    48    14    16    1
    49    16    17    2
    50    16    18   am
    51    18    19    1
    52    19    20    1
    53    19    21    1
    54    21    22    1
    55    21    23    1
    56    23    24    1
    57    23    25    1
    58    23     1    1
    59    42    34    1
    60    53    47    1
    61    57    52    1
    62    39    43    1
    63    18    26    1
    64    22    27    1
    65    25    28    1
@<TRIPOS>MOLECULE
*****
 62 65 0 0 0
SMALL
GASTEIGER

@<TRIPOS>ATOM
      1 C          63.1186   82.6274   10.5678 C.3     1  UNL1        0.1953
      2 O          62.9196   83.7860    9.6362 O.3     1  UNL1       -0.4497
      3 C          62.7791   85.2301    9.2559 C.2     1  UNL1        0.3188
      4 O          62.5799   85.1439    7.7716 O.2     1  UNL1       -0.2500
      5 C          62.7214   86.7102    9.4928 C.3     1  UNL1        0.1263
      6 C          62.5290   86.8673    8.1658 C.3     1  UNL1        0.0142
      7 C          62.7565   87.9703   10.3060 C.3     1  UNL1        0.1306
      8 C          62.8783   88.7924   11.5547 C.3     1  UNL1        0.0575
      9 C          62.7204   90.1874   11.0263 C.3     1  UNL1        0.0051
     10 C          63.0658   89.0344   13.0231 C.3     1  UNL1        0.1448
     11 C          63.2865   88.6545   14.4573 C.3     1  UNL1        0.1183
     12 C          63.4211   89.3873   15.7591 C.3     1  UNL1        0.0321
     13 C          63.5023   87.7184   15.6093 C.3     1  UNL1        0.0387
     14 C          63.6759   86.3880   16.2799 C.3     1  UNL1        0.0789
     15 C          63.8496   86.7831   17.7165 C.3     1  UNL1        0.0096
     16 C          63.7772   84.8932   16.3532 C.2     1  UNL1        0.2221
     17 O          63.9931   84.6668   17.8203 O.2     1  UNL1       -0.2751
     18 N          63.7887   83.4926   15.8165 N.am    1  UNL1       -0.3035
     19 C          63.7085   82.4283   14.7625 C.3     1  UNL1        0.1008
     20 C          63.8958   81.1769   15.5681 C.3     1  UNL1        0.0239
     21 C          63.5504   81.8843   13.3735 C.3     1  UNL1        0.1560
     22 O          63.6720   80.4067   13.6016 O.3     1  UNL1       -0.3803
     23 C          63.3418   81.9548   11.8898 C.3     1  UNL1        0.1509
     24 C          63.2472   80.9666   10.7654 C.3     1  UNL1        0.0356
     25 O          63.4940   80.5417   12.3694 O.3     1  UNL1       -0.3808
     26 H          63.9336   82.9617   16.6328 H       1  UNL1        0.1495
     27 H          63.8125   80.2358   14.5460 H       1  UNL1        0.2105
     28 H          63.6266   80.5388   13.3303 H       1  UNL1        0.2105
     29 C          62.8012   80.0810   10.1620 C.3     1  UNL1        0.0039
     30 C          63.0606   81.4589    9.6292 C.3     1  UNL1        0.0462
     31 O          63.1716   90.1397   14.2807 O.3     1  UNL1       -0.3535
     32 C          62.4671   90.3441   14.5927 C.3     1  UNL1        0.1740
     33 O          62.5479   89.0234    9.2584 O.3     1  UNL1       -0.3323
     34 C          61.2912   89.0281    8.4394 C.3     1  UNL1        0.2375
     35 C          61.0831   90.0806    7.3910 C.3     1  UNL1        0.0910
     36 C          59.8264   90.0854    6.5721 C.3     1  UNL1        0.1246
     37 C          58.8115   90.5045    5.5503 C.3     1  UNL1        0.0324
     38 C          58.7777   89.0377    6.8016 C.3     1  UNL1        0.1623
     39 O          57.5211   89.0424    5.9827 O.3     1  UNL1       -0.3796
     40 C          58.9858   87.9853    7.8499 C.3     1  UNL1        0.1468
     41 C          57.9371   86.9376    8.0794 C.3     1  UNL1        0.0348
     42 O          60.2425   87.9805    8.6689 O.3     1  UNL1       -0.3304
     43 H          56.9543   88.3042    6.2560 H       1  UNL1        0.2105
     44 O          60.5226   91.2786    5.9878 O.3     1  UNL1       -0.3532
     45 C          60.0541   91.8569    4.6854 C.3     1  UNL1        0.1740
     46 O          62.9859   90.5300   13.1053 O.3     1  UNL1       -0.3278
     47 C          63.8326   91.2730   14.0958 C.3     1  UNL1        0.2785
     48 O          63.3452   91.4696   15.5008 O.3     1  UNL1       -0.3302
     49 C          64.1919   92.2125   16.4912 C.3     1  UNL1        0.1198
     50 C          63.7046   92.4091   17.8962 C.3     1  UNL1        0.0322
     51 C          65.5259   92.7589   16.0768 C.3     1  UNL1        0.0534
     52 C          66.0134   92.5624   14.6719 C.3     1  UNL1        0.1245
     53 C          65.1666   91.8193   13.6813 C.3     1  UNL1        0.2426
     54 O          65.9051   91.7818   12.3762 O.2     1  UNL1       -0.4466
     55 C          67.2082   92.5017   12.5602 C.2     1  UNL1        0.2832
     56 N          68.2598   92.7036   11.5098 N.2     1  UNL1       -0.2281
     57 N          67.2751   92.9840   13.9789 N.pl3   1  UNL1       -0.2603
     58 C          68.4053   93.7530   14.5963 C.3     1  UNL1        0.1166
     59 C          68.0523   92.1611   10.1268 C.3     1  UNL1        0.0891
     60 C          67.4403   93.4647    9.7073 C.3     1  UNL1        0.0245
     61 C          68.6644   90.8576   10.5463 C.3     1  UNL1        0.0245
     62 C          67.8449   91.6187    8.7438 C.3     1  UNL1        0.0245
@<TRIPOS>BOND
     1    29    30    1
     2     1    30    1
     3     1     2    1
     4     2     3    1
     5     3     4    2
     6     3     5    1
     7     5     6    1
     8     5     7    1
     9     7    33    1
    10    34    33    1
    11    34    35    1
    12    35    36    1
    13    36    37    1
    14    36    44    1
    15    44    45    1
    16    36    38    1
    17    38    39    1
    18    38    40    1
    19    40    41    1
    20    40    42    1
    21     7     8    1
    22     8     9    1
    23     8    10    1
    24    10    46    1
    25    47    46    1
    26    47    48    1
    27    48    49    1
    28    49    50    1
    29    49    51    1
    30    52    51    1
    31    52    53    1
    32    53    54    1
    33    54    55    1
    34    55    56    2
    35    56    59    1
    36    59    60    1
    37    59    61    1
    38    59    62    1
    39    55    57    1
    40    57    58    1
    41    10    11    1
    42    11    12    1
    43    11    31    1
    44    31    32    1
    45    11    13    1
    46    13    14    1
    47    14    15    1
    48    14    16    1
    49    16    17    2
    50    16    18   am
    51    18    19    1
    52    19    20    1
    53    19    21    1
    54    21    22    1
    55    21    23    1
    56    23    24    1
    57    23    25    1
    58    23     1    1
    59    42    34    1
    60    53    47    1
    61    57    52    1
    62    39    43    1
    63    18    26    1
    64    22    27    1
    65    25    28    1
@<TRIPOS>MOLECULE
*****
 62 65 0 0 0
SMALL
GASTEIGER

@<TRIPOS>ATOM
      1 C          65.9702   95.7640    6.8994 C.3     1  UNL1        0.1953
      2 O          65.9550   95.3142    8.3303 O.3     1  UNL1       -0.4497
      3 C          65.5138   94.4893    9.5028 C.2     1  UNL1        0.3188
      4 O          66.3550   95.0485   10.6118 O.2     1  UNL1       -0.2500
      5 C          64.7228   93.4318   10.2142 C.3     1  UNL1        0.1263
      6 C          65.3699   93.7771   11.3476 C.3     1  UNL1        0.0142
      7 C          63.7187   92.3246   10.3415 C.3     1  UNL1        0.1306
      8 C          62.6753   91.3592    9.8626 C.3     1  UNL1        0.0575
      9 C          62.3362   90.6169   11.1212 C.3     1  UNL1        0.0051
     10 C          61.7730   90.7025    8.8604 C.3     1  UNL1        0.1448
     11 C          61.1676   90.4680    7.5082 C.3     1  UNL1        0.1183
     12 C          60.1355   89.5437    6.9337 C.3     1  UNL1        0.0321
     13 C          60.9640   90.6963    6.0397 C.3     1  UNL1        0.0387
     14 C          61.1973   91.3479    4.7089 C.3     1  UNL1        0.0789
     15 C          60.2435   90.6009    3.8244 C.3     1  UNL1        0.0096
     16 C          61.8271   92.3101    3.7459 C.2     1  UNL1        0.2221
     17 O          61.1353   91.9632    2.4610 O.2     1  UNL1       -0.2751
     18 N          62.7447   93.4166    3.3173 N.am    1  UNL1       -0.3035
     19 C          63.7913   94.4760    3.4970 C.3     1  UNL1        0.1008
     20 C          63.9162   95.0297    2.1085 C.3     1  UNL1        0.0239
     21 C          64.7860   95.3053    4.2541 C.3     1  UNL1        0.1560
     22 O          65.3245   96.2038    3.1803 O.3     1  UNL1       -0.3803
     23 C          65.5566   95.7608    5.4576 C.3     1  UNL1        0.1509
     24 C          66.6073   96.7938    5.7386 C.3     1  UNL1        0.0356
     25 O          65.9303   96.5316    4.2262 O.3     1  UNL1       -0.3808
     26 H          62.5411   93.4909    2.3569 H       1  UNL1        0.1495
     27 H          64.8903   95.9970    2.3379 H       1  UNL1        0.2105
     28 H          65.4120   96.2083    3.4727 H       1  UNL1        0.2105
     29 C          68.0623   96.8560    7.9859 C.3     1  UNL1        0.0039
     30 C          67.0011   96.8532    6.9258 C.3     1  UNL1        0.0462
     31 O          60.5979   89.5472    8.5462 O.3     1  UNL1       -0.3535
     32 C          59.9455   89.2255    8.2202 C.3     1  UNL1        0.1740
     33 O          63.8135   91.9837   11.7992 O.3     1  UNL1       -0.3323
     34 C          65.1504   91.9635   12.4793 C.3     1  UNL1        0.2375
     35 C          65.2353   92.1010   13.9706 C.3     1  UNL1        0.0910
     36 C          66.5720   92.0808   14.6508 C.3     1  UNL1        0.1246
     37 C          67.5978   92.1200   15.7445 C.3     1  UNL1        0.0324
     38 C          67.8239   91.9230   13.8397 C.3     1  UNL1        0.1623
     39 O          69.1606   91.9028   14.5197 O.3     1  UNL1       -0.3796
     40 C          67.7390   91.7856   12.3484 C.3     1  UNL1        0.1468
     41 C          68.9908   91.6279   11.5372 C.3     1  UNL1        0.0348
     42 O          66.4022   91.8058   11.6682 O.3     1  UNL1       -0.3304
     43 H          69.8595   91.7945   13.8559 H       1  UNL1        0.2105
     44 O          65.6764   92.2521   15.8417 O.3     1  UNL1       -0.3532
     45 C          64.2666   91.7411   15.7996 C.3     1  UNL1        0.1740
     46 O          61.0586   89.6871    9.7023 O.3     1  UNL1       -0.3278
     47 C          61.8433   88.7272   10.5465 C.3     1  UNL1        0.2785
     48 O          62.2958   89.1315   11.9183 O.3     1  UNL1       -0.3302
     49 C          63.0804   88.1715   12.7625 C.3     1  UNL1        0.1198
     50 C          63.5329   88.5758   14.1343 C.3     1  UNL1        0.0322
     51 C          63.4126   86.8072   12.2349 C.3     1  UNL1        0.0534
     52 C          62.9602   86.4028   10.8631 C.3     1  UNL1        0.1245
     53 C          62.1755   87.3629   10.0189 C.3     1  UNL1        0.2426
     54 O          61.8669   86.6884    8.7151 O.2     1  UNL1       -0.4466
     55 C          62.4610   85.3115    8.7536 C.2     1  UNL1        0.2832
     56 N          62.3915   84.2904    7.6570 N.2     1  UNL1       -0.2281
     57 N          63.1366   85.1350   10.0811 N.pl3   1  UNL1       -0.2603
     58 C          63.8614   83.9066   10.5452 C.3     1  UNL1        0.1166
     59 C          61.6773   84.6112    6.3776 C.3     1  UNL1        0.0891
     60 C          60.5019   85.1166    7.1605 C.3     1  UNL1        0.0245
     61 C          62.8527   84.1057    5.5947 C.3     1  UNL1        0.0245
     62 C          60.9630   84.9320    5.0981 C.3     1  UNL1        0.0245
@<TRIPOS>BOND
     1    29    30    1
     2     1    30    1
     3     1     2    1
     4     2     3    1
     5     3     4    2
     6     3     5    1
     7     5     6    1
     8     5     7    1
     9     7    33    1
    10    34    33    1
    11    34    35    1
    12    35    36    1
    13    36    37    1
    14    36    44    1
    15    44    45    1
    16    36    38    1
    17    38    39    1
    18    38    40    1
    19    40    41    1
    20    40    42    1
    21     7     8    1
    22     8     9    1
    23     8    10    1
    24    10    46    1
    25    47    46    1
    26    47    48    1
    27    48    49    1
    28    49    50    1
    29    49    51    1
    30    52    51    1
    31    52    53    1
    32    53    54    1
    33    54    55    1
    34    55    56    2
    35    56    59    1
    36    59    60    1
    37    59    61    1
    38    59    62    1
    39    55    57    1
    40    57    58    1
    41    10    11    1
    42    11    12    1
    43    11    31    1
    44    31    32    1
    45    11    13    1
    46    13    14    1
    47    14    15    1
    48    14    16    1
    49    16    17    2
    50    16    18   am
    51    18    19    1
    52    19    20    1
    53    19    21    1
    54    21    22    1
    55    21    23    1
    56    23    24    1
    57    23    25    1
    58    23     1    1
    59    42    34    1
    60    53    47    1
    61    57    52    1
    62    39    43    1
    63    18    26    1
    64    22    27    1
    65    25    28    1
