@<TRIPOS>MOLECULE
*****
 34 37 0 0 0
SMALL
GASTEIGER

@<TRIPOS>ATOM
      1 N          60.6554   89.0106   11.0427 N.am    1  UNL1       -0.2533
      2 C          61.9335   89.6354   11.5179 C.2     1  UNL1        0.3092
      3 O          62.9466   90.1200   10.5234 O.2     1  UNL1       -0.2521
      4 N          62.1986   89.7758   12.9876 N.am    1  UNL1       -0.2680
      5 H          59.9905   88.6926   11.6954 H       1  UNL1        0.1578
      6 H          61.5338   89.4578   13.6404 H       1  UNL1        0.1564
      7 C          63.4768   90.4007   13.4628 C.ar    1  UNL1        0.0517
      8 C          64.1758   89.8523   14.6714 C.ar    1  UNL1        0.0162
      9 C          65.4539   90.4772   15.1466 C.ar    1  UNL1        0.0188
     10 C          66.0332   91.6504   14.4132 C.ar    1  UNL1        0.0652
     11 C          65.3343   92.1987   13.2045 C.ar    1  UNL1        0.0188
     12 C          64.0561   91.5739   12.7294 C.ar    1  UNL1        0.0162
     13 N          67.3114   92.2752   14.8884 N.ar    1  UNL1       -0.2915
     14 C          67.5029   93.0213   16.1755 C.ar    1  UNL1        0.1825
     15 N          68.9323   93.4709   16.2424 N.ar    1  UNL1       -0.2224
     16 C          69.6243   93.0027   14.9967 C.ar    1  UNL1        0.1137
     17 C          68.6225   92.2637   14.1598 C.ar    1  UNL1        0.0623
     18 C          68.8857   91.6253   12.8282 C.3     1  UNL1        0.0521
     19 N          60.8227   87.7264    8.7044 N.ar    1  UNL1       -0.2162
     20 N          60.3457   87.9983    7.3085 N.ar    1  UNL1       -0.1683
     21 C          59.6184   89.3102    7.3144 C.ar    1  UNL1        0.0810
     22 C          59.6459   89.8491    8.7140 C.ar    1  UNL1        0.0509
     23 C          60.3902   88.8702    9.5730 C.ar    1  UNL1        0.1380
     24 C          63.9173   82.9092   10.4984 C.3     1  UNL1        0.0310
     25 C          63.1437   84.1135   10.0499 C.ar    1  UNL1       -0.0218
     26 C          62.2198   84.8098   11.0047 C.ar    1  UNL1       -0.0027
     27 C          61.4462   86.0141   10.5562 C.ar    1  UNL1        0.0189
     28 C          61.5964   86.5221    9.1529 C.ar    1  UNL1        0.0842
     29 C          62.5202   85.8258    8.1981 C.ar    1  UNL1        0.0189
     30 C          63.2938   84.6215    8.6466 C.ar    1  UNL1       -0.0027
     31 C          58.9764   89.9677    6.1289 C.3     1  UNL1        0.0372
     32 C          60.3161   90.4762    5.6854 C.3     1  UNL1        0.0060
     33 C          57.6367   89.4592    6.5724 C.3     1  UNL1        0.0060
     34 C          58.3344   90.6252    4.9434 C.3     1  UNL1        0.0060
@<TRIPOS>BOND
     1    24    25    1
     2    25    26   ar
     3    26    27   ar
     4    27    28   ar
     5    28    19    1
     6    19    20   ar
     7    20    21   ar
     8    21    31    1
     9    31    32    1
    10    31    33    1
    11    31    34    1
    12    21    22   ar
    13    22    23   ar
    14    23     1    1
    15     1     2   am
    16     2     3    2
    17     2     4   am
    18     4     7    1
    19     7     8   ar
    20     8     9   ar
    21     9    10   ar
    22    10    13    1
    23    13    14   ar
    24    14    15   ar
    25    15    16   ar
    26    16    17   ar
    27    17    18    1
    28    10    11   ar
    29    11    12   ar
    30    28    29   ar
    31    29    30   ar
    32    30    25   ar
    33    23    19   ar
    34    12     7   ar
    35    17    13   ar
    36     1     5    1
    37     4     6    1
@<TRIPOS>MOLECULE
*****
 34 37 0 0 0
SMALL
GASTEIGER

@<TRIPOS>ATOM
      1 N          62.4696   87.1890   13.5762 N.am    1  UNL1       -0.2533
      2 C          63.1895   88.2759   12.8343 C.2     1  UNL1        0.3092
      3 O          63.9235   87.9586   11.5652 O.2     1  UNL1       -0.2521
      4 N          63.1754   89.6801   13.3615 N.am    1  UNL1       -0.2680
      5 H          61.9878   87.3973   14.4091 H       1  UNL1        0.1578
      6 H          62.6937   89.8885   14.1944 H       1  UNL1        0.1564
      7 C          63.8953   90.7670   12.6196 C.ar    1  UNL1        0.0517
      8 C          63.5133   91.0898   11.2054 C.ar    1  UNL1        0.0162
      9 C          64.2332   92.1767   10.4635 C.ar    1  UNL1        0.0188
     10 C          65.3352   92.9407   11.1357 C.ar    1  UNL1        0.0652
     11 C          65.7172   92.6179   12.5498 C.ar    1  UNL1        0.0188
     12 C          64.9973   91.5310   13.2917 C.ar    1  UNL1        0.0162
     13 N          66.0551   94.0276   10.3938 N.ar    1  UNL1       -0.2915
     14 C          65.6520   95.4712   10.3349 C.ar    1  UNL1        0.1825
     15 N          66.6523   96.1975    9.4852 N.ar    1  UNL1       -0.2224
     16 C          67.6736   95.2027    9.0190 C.ar    1  UNL1        0.1137
     17 C          67.3045   93.8616    9.5805 C.ar    1  UNL1        0.0623
     18 C          68.0534   92.5797    9.3664 C.3     1  UNL1        0.0521
     19 N          61.9691   85.3397   11.7122 N.ar    1  UNL1       -0.2162
     20 N          62.1822   83.8589   11.6032 N.ar    1  UNL1       -0.1683
     21 C          62.8284   83.3888   12.8726 C.ar    1  UNL1        0.0810
     22 C          63.0147   84.5791   13.7662 C.ar    1  UNL1        0.0509
     23 C          62.4836   85.7848   13.0490 C.ar    1  UNL1        0.1380
     24 C          59.4935   88.8636    7.5344 C.3     1  UNL1        0.0310
     25 C          60.1124   87.9826    8.5789 C.ar    1  UNL1       -0.0218
     26 C          59.9053   88.2846   10.0335 C.ar    1  UNL1       -0.0027
     27 C          60.5242   87.4036   11.0779 C.ar    1  UNL1        0.0189
     28 C          61.3502   86.2206   10.6677 C.ar    1  UNL1        0.0842
     29 C          61.5574   85.9187    9.2132 C.ar    1  UNL1        0.0189
     30 C          60.9385   86.7996    8.1687 C.ar    1  UNL1       -0.0027
     31 C          63.2196   81.9765   13.1923 C.3     1  UNL1        0.0372
     32 C          64.3618   82.0739   12.2250 C.3     1  UNL1        0.0060
     33 C          62.0773   81.8790   14.1597 C.3     1  UNL1        0.0060
     34 C          63.6107   80.5641   13.5120 C.3     1  UNL1        0.0060
@<TRIPOS>BOND
     1    24    25    1
     2    25    26   ar
     3    26    27   ar
     4    27    28   ar
     5    28    19    1
     6    19    20   ar
     7    20    21   ar
     8    21    31    1
     9    31    32    1
    10    31    33    1
    11    31    34    1
    12    21    22   ar
    13    22    23   ar
    14    23     1    1
    15     1     2   am
    16     2     3    2
    17     2     4   am
    18     4     7    1
    19     7     8   ar
    20     8     9   ar
    21     9    10   ar
    22    10    13    1
    23    13    14   ar
    24    14    15   ar
    25    15    16   ar
    26    16    17   ar
    27    17    18    1
    28    10    11   ar
    29    11    12   ar
    30    28    29   ar
    31    29    30   ar
    32    30    25   ar
    33    23    19   ar
    34    12     7   ar
    35    17    13   ar
    36     1     5    1
    37     4     6    1
@<TRIPOS>MOLECULE
*****
 34 37 0 0 0
SMALL
GASTEIGER

@<TRIPOS>ATOM
      1 N          60.0309   94.4481    0.8600 N.am    1  UNL1       -0.2533
      2 C          60.0041   93.2895    1.8122 C.2     1  UNL1        0.3092
      3 O          60.3709   91.9162    1.3330 O.2     1  UNL1       -0.2521
      4 N          59.6106   93.5040    3.2437 N.am    1  UNL1       -0.2680
      5 H          59.7901   95.3494    1.1746 H       1  UNL1        0.1578
      6 H          59.3698   94.4053    3.5583 H       1  UNL1        0.1564
      7 C          59.5838   92.3453    4.1959 C.ar    1  UNL1        0.0517
      8 C          58.2876   91.9125    4.8144 C.ar    1  UNL1        0.0162
      9 C          58.2608   90.7538    5.7666 C.ar    1  UNL1        0.0188
     10 C          59.5303   90.0278    6.1003 C.ar    1  UNL1        0.0652
     11 C          60.8265   90.4606    5.4819 C.ar    1  UNL1        0.0188
     12 C          60.8532   91.6193    4.5297 C.ar    1  UNL1        0.0162
     13 N          59.5035   88.8691    7.0525 N.ar    1  UNL1       -0.2915
     14 C          59.0142   87.4852    6.7437 C.ar    1  UNL1        0.1825
     15 N          59.1696   86.6517    7.9810 N.ar    1  UNL1       -0.2224
     16 C          59.7551   87.5204    9.0546 C.ar    1  UNL1        0.1137
     17 C          59.9614   88.8909    8.4807 C.ar    1  UNL1        0.0623
     18 C          60.5265   90.0752    9.2075 C.3     1  UNL1        0.0521
     19 N          59.5089   94.3040   -1.7576 N.ar    1  UNL1       -0.2162
     20 N          60.3212   94.0249   -2.9873 N.ar    1  UNL1       -0.1683
     21 C          61.7388   93.7820   -2.5612 C.ar    1  UNL1        0.0810
     22 C          61.8025   93.9110   -1.0681 C.ar    1  UNL1        0.0509
     23 C          60.4244   94.2336   -0.5715 C.ar    1  UNL1        0.1380
     24 C          53.6298   95.4931   -1.6093 C.3     1  UNL1        0.0310
     25 C          55.0995   95.1958   -1.6463 C.ar    1  UNL1       -0.0218
     26 C          55.5751   93.7898   -1.8627 C.ar    1  UNL1       -0.0027
     27 C          57.0449   93.4925   -1.8998 C.ar    1  UNL1        0.0189
     28 C          58.0391   94.6013   -1.7205 C.ar    1  UNL1        0.0842
     29 C          57.5635   96.0073   -1.5041 C.ar    1  UNL1        0.0189
     30 C          56.0937   96.3046   -1.4670 C.ar    1  UNL1       -0.0027
     31 C          62.8904   93.4657   -3.4688 C.3     1  UNL1        0.0372
     32 C          62.0686   93.8762   -4.6546 C.3     1  UNL1        0.0060
     33 C          63.7122   93.0552   -2.2830 C.3     1  UNL1        0.0060
     34 C          64.0420   93.1494   -4.3764 C.3     1  UNL1        0.0060
@<TRIPOS>BOND
     1    24    25    1
     2    25    26   ar
     3    26    27   ar
     4    27    28   ar
     5    28    19    1
     6    19    20   ar
     7    20    21   ar
     8    21    31    1
     9    31    32    1
    10    31    33    1
    11    31    34    1
    12    21    22   ar
    13    22    23   ar
    14    23     1    1
    15     1     2   am
    16     2     3    2
    17     2     4   am
    18     4     7    1
    19     7     8   ar
    20     8     9   ar
    21     9    10   ar
    22    10    13    1
    23    13    14   ar
    24    14    15   ar
    25    15    16   ar
    26    16    17   ar
    27    17    18    1
    28    10    11   ar
    29    11    12   ar
    30    28    29   ar
    31    29    30   ar
    32    30    25   ar
    33    23    19   ar
    34    12     7   ar
    35    17    13   ar
    36     1     5    1
    37     4     6    1
@<TRIPOS>MOLECULE
*****
 34 37 0 0 0
SMALL
GASTEIGER

@<TRIPOS>ATOM
      1 N          59.9972   94.3572    1.4367 N.am    1  UNL1       -0.2533
      2 C          60.1492   93.2835    2.4730 C.2     1  UNL1        0.3092
      3 O          61.4549   92.5592    2.6167 O.2     1  UNL1       -0.2521
      4 N          58.9955   92.9339    3.3656 N.am    1  UNL1       -0.2680
      5 H          59.1402   94.8326    1.3424 H       1  UNL1        0.1578
      6 H          58.1385   93.4092    3.2713 H       1  UNL1        0.1564
      7 C          59.1475   91.8601    4.4019 C.ar    1  UNL1        0.0517
      8 C          57.9338   91.2870    5.0717 C.ar    1  UNL1        0.0162
      9 C          58.0858   90.2132    6.1079 C.ar    1  UNL1        0.0188
     10 C          59.4514   89.7125    6.4744 C.ar    1  UNL1        0.0652
     11 C          60.6651   90.2856    5.8046 C.ar    1  UNL1        0.0188
     12 C          60.5131   91.3594    4.7684 C.ar    1  UNL1        0.0162
     13 N          59.6034   88.6387    7.5107 N.ar    1  UNL1       -0.2915
     14 C          59.3550   87.1737    7.3054 C.ar    1  UNL1        0.1825
     15 N          59.6286   86.4710    8.6020 N.ar    1  UNL1       -0.2224
     16 C          60.0462   87.5016    9.6087 C.ar    1  UNL1        0.1137
     17 C          60.0306   88.8414    8.9342 C.ar    1  UNL1        0.0623
     18 C          60.3808   90.1533    9.5714 C.3     1  UNL1        0.0521
     19 N          61.2131   94.4960   -0.9397 N.ar    1  UNL1       -0.2162
     20 N          62.5456   94.9875   -1.4222 N.ar    1  UNL1       -0.1683
     21 C          63.3069   95.5022   -0.2366 C.ar    1  UNL1        0.0810
     22 C          62.4450   95.3287    0.9786 C.ar    1  UNL1        0.0509
     23 C          61.1509   94.7068    0.5441 C.ar    1  UNL1        0.1380
     24 C          56.8908   92.1062   -4.3466 C.3     1  UNL1        0.0310
     25 C          57.9714   92.7037   -3.4948 C.ar    1  UNL1       -0.0218
     26 C          58.9285   93.6966   -4.0847 C.ar    1  UNL1       -0.0027
     27 C          60.0091   94.2940   -3.2330 C.ar    1  UNL1        0.0189
     28 C          60.1325   93.8986   -1.7914 C.ar    1  UNL1        0.0842
     29 C          59.1754   92.9057   -1.2015 C.ar    1  UNL1        0.0189
     30 C          58.0949   92.3082   -2.0532 C.ar    1  UNL1       -0.0027
     31 C          64.6878   96.0875   -0.2619 C.3     1  UNL1        0.0372
     32 C          64.7531   95.8692   -1.7445 C.3     1  UNL1        0.0060
     33 C          64.6224   96.3057    1.2207 C.3     1  UNL1        0.0060
     34 C          66.0686   96.6728   -0.2872 C.3     1  UNL1        0.0060
@<TRIPOS>BOND
     1    24    25    1
     2    25    26   ar
     3    26    27   ar
     4    27    28   ar
     5    28    19    1
     6    19    20   ar
     7    20    21   ar
     8    21    31    1
     9    31    32    1
    10    31    33    1
    11    31    34    1
    12    21    22   ar
    13    22    23   ar
    14    23     1    1
    15     1     2   am
    16     2     3    2
    17     2     4   am
    18     4     7    1
    19     7     8   ar
    20     8     9   ar
    21     9    10   ar
    22    10    13    1
    23    13    14   ar
    24    14    15   ar
    25    15    16   ar
    26    16    17   ar
    27    17    18    1
    28    10    11   ar
    29    11    12   ar
    30    28    29   ar
    31    29    30   ar
    32    30    25   ar
    33    23    19   ar
    34    12     7   ar
    35    17    13   ar
    36     1     5    1
    37     4     6    1
@<TRIPOS>MOLECULE
*****
 34 37 0 0 0
SMALL
GASTEIGER

@<TRIPOS>ATOM
      1 N          64.5179   90.5173   13.8619 N.am    1  UNL1       -0.2533
      2 C          64.1881   89.0805   13.5851 C.2     1  UNL1        0.3092
      3 O          64.0420   88.6035   12.1704 O.2     1  UNL1       -0.2521
      4 N          64.0044   88.1205   14.7229 N.am    1  UNL1       -0.2680
      5 H          64.6138   90.8303   14.7904 H       1  UNL1        0.1578
      6 H          64.1003   88.4334   15.6514 H       1  UNL1        0.1564
      7 C          63.6746   86.6836   14.4461 C.ar    1  UNL1        0.0517
      8 C          63.8579   85.6518   15.5193 C.ar    1  UNL1        0.0162
      9 C          63.5281   84.2149   15.2425 C.ar    1  UNL1        0.0188
     10 C          63.0151   83.8098   13.8924 C.ar    1  UNL1        0.0652
     11 C          62.8318   84.8416   12.8192 C.ar    1  UNL1        0.0188
     12 C          63.1616   86.2784   13.0961 C.ar    1  UNL1        0.0162
     13 N          62.6853   82.3729   13.6156 N.ar    1  UNL1       -0.2915
     14 C          61.7124   81.5279   14.3833 C.ar    1  UNL1        0.1825
     15 N          61.6963   80.1615   13.7646 N.ar    1  UNL1       -0.2224
     16 C          62.6593   80.1621   12.6145 C.ar    1  UNL1        0.1137
     17 C          63.2705   81.5289   12.5224 C.ar    1  UNL1        0.0623
     18 C          64.2883   81.9734   11.5142 C.3     1  UNL1        0.0521
     19 N          63.8679   91.5383   11.4786 N.ar    1  UNL1       -0.2162
     20 N          64.4024   92.6436   10.6168 N.ar    1  UNL1       -0.1683
     21 C          65.5664   93.2657   11.3296 C.ar    1  UNL1        0.0810
     22 C          65.7513   92.5449   12.6320 C.ar    1  UNL1        0.0509
     23 C          64.7016   91.4773   12.7241 C.ar    1  UNL1        0.1380
     24 C          59.2127   87.9852   10.1731 C.3     1  UNL1        0.0310
     25 C          60.3765   88.8735   10.4995 C.ar    1  UNL1       -0.0218
     26 C          61.5765   88.8982    9.6000 C.ar    1  UNL1       -0.0027
     27 C          62.7403   89.7865    9.9263 C.ar    1  UNL1        0.0189
     28 C          62.7041   90.6500   11.1522 C.ar    1  UNL1        0.0842
     29 C          61.5041   90.6253   12.0518 C.ar    1  UNL1        0.0189
     30 C          60.3402   89.7370   11.7254 C.ar    1  UNL1       -0.0027
     31 C          66.3992   94.4080   10.8281 C.3     1  UNL1        0.0372
     32 C          66.1403   95.1561   12.1022 C.3     1  UNL1        0.0060
     33 C          66.6581   93.6599    9.5540 C.3     1  UNL1        0.0060
     34 C          67.2320   95.5503   10.3266 C.3     1  UNL1        0.0060
@<TRIPOS>BOND
     1    24    25    1
     2    25    26   ar
     3    26    27   ar
     4    27    28   ar
     5    28    19    1
     6    19    20   ar
     7    20    21   ar
     8    21    31    1
     9    31    32    1
    10    31    33    1
    11    31    34    1
    12    21    22   ar
    13    22    23   ar
    14    23     1    1
    15     1     2   am
    16     2     3    2
    17     2     4   am
    18     4     7    1
    19     7     8   ar
    20     8     9   ar
    21     9    10   ar
    22    10    13    1
    23    13    14   ar
    24    14    15   ar
    25    15    16   ar
    26    16    17   ar
    27    17    18    1
    28    10    11   ar
    29    11    12   ar
    30    28    29   ar
    31    29    30   ar
    32    30    25   ar
    33    23    19   ar
    34    12     7   ar
    35    17    13   ar
    36     1     5    1
    37     4     6    1
@<TRIPOS>MOLECULE
*****
 34 37 0 0 0
SMALL
GASTEIGER

@<TRIPOS>ATOM
      1 N          63.8738   89.3623   15.5932 N.am    1  UNL1       -0.2533
      2 C          63.8445   88.0606   14.8484 C.2     1  UNL1        0.3092
      3 O          64.5956   87.9178   13.5579 O.2     1  UNL1       -0.2521
      4 N          63.0640   86.9017   15.3941 N.am    1  UNL1       -0.2680
      5 H          63.3808   89.4560   16.4402 H       1  UNL1        0.1578
      6 H          62.5710   86.9953   16.2411 H       1  UNL1        0.1564
      7 C          63.0348   85.6000   14.6492 C.ar    1  UNL1        0.0517
      8 C          62.7978   85.5886   13.1681 C.ar    1  UNL1        0.0162
      9 C          62.7685   84.2869   12.4233 C.ar    1  UNL1        0.0188
     10 C          62.9762   82.9966   13.1595 C.ar    1  UNL1        0.0652
     11 C          63.2133   83.0081   14.6406 C.ar    1  UNL1        0.0188
     12 C          63.2425   84.3097   15.3854 C.ar    1  UNL1        0.0162
     13 N          62.9470   81.6950   12.4146 N.ar    1  UNL1       -0.2915
     14 C          62.4359   80.3877   12.9437 C.ar    1  UNL1        0.1825
     15 N          62.5967   79.3568   11.8660 N.ar    1  UNL1       -0.2224
     16 C          63.2072   80.0270   10.6709 C.ar    1  UNL1        0.1137
     17 C          63.4237   81.4721   11.0100 C.ar    1  UNL1        0.0623
     18 C          64.0133   82.5116   10.1036 C.3     1  UNL1        0.0521
     19 N          64.4453   91.1751   13.7138 N.ar    1  UNL1       -0.2162
     20 N          65.4426   92.2878   13.5818 N.ar    1  UNL1       -0.1683
     21 C          66.2677   92.3217   14.8340 C.ar    1  UNL1        0.0810
     22 C          65.7805   91.2299   15.7399 C.ar    1  UNL1        0.0509
     23 C          64.6542   90.5213   15.0475 C.ar    1  UNL1        0.1380
     24 C          60.3416   89.6137    9.6246 C.3     1  UNL1        0.0310
     25 C          61.3675   90.0040   10.6469 C.ar    1  UNL1       -0.0218
     26 C          62.6417   90.6674   10.2153 C.ar    1  UNL1       -0.0027
     27 C          63.6677   91.0577   11.2376 C.ar    1  UNL1        0.0189
     28 C          63.4194   90.7847   12.6915 C.ar    1  UNL1        0.0842
     29 C          62.1452   90.1213   13.1230 C.ar    1  UNL1        0.0189
     30 C          61.1193   89.7310   12.1007 C.ar    1  UNL1       -0.0027
     31 C          67.3841   93.2792   15.1286 C.3     1  UNL1        0.0372
     32 C          67.9366   92.3228   16.1435 C.3     1  UNL1        0.0060
     33 C          66.8316   94.2355   14.1136 C.3     1  UNL1        0.0060
     34 C          68.5005   94.2367   15.4231 C.3     1  UNL1        0.0060
@<TRIPOS>BOND
     1    24    25    1
     2    25    26   ar
     3    26    27   ar
     4    27    28   ar
     5    28    19    1
     6    19    20   ar
     7    20    21   ar
     8    21    31    1
     9    31    32    1
    10    31    33    1
    11    31    34    1
    12    21    22   ar
    13    22    23   ar
    14    23     1    1
    15     1     2   am
    16     2     3    2
    17     2     4   am
    18     4     7    1
    19     7     8   ar
    20     8     9   ar
    21     9    10   ar
    22    10    13    1
    23    13    14   ar
    24    14    15   ar
    25    15    16   ar
    26    16    17   ar
    27    17    18    1
    28    10    11   ar
    29    11    12   ar
    30    28    29   ar
    31    29    30   ar
    32    30    25   ar
    33    23    19   ar
    34    12     7   ar
    35    17    13   ar
    36     1     5    1
    37     4     6    1
@<TRIPOS>MOLECULE
*****
 34 37 0 0 0
SMALL
GASTEIGER

@<TRIPOS>ATOM
      1 N          63.0175   85.7100   14.2886 N.am    1  UNL1       -0.2533
      2 C          63.4785   86.9832   13.6436 C.2     1  UNL1        0.3092
      3 O          63.6985   87.0359   12.1606 O.2     1  UNL1       -0.2521
      4 N          63.7196   88.2039   14.4813 N.am    1  UNL1       -0.2680
      5 H          62.8731   85.6754   15.2618 H       1  UNL1        0.1578
      6 H          63.5752   88.1694   15.4545 H       1  UNL1        0.1564
      7 C          64.1806   89.4772   13.8361 C.ar    1  UNL1        0.0517
      8 C          65.3059   90.2612   14.4437 C.ar    1  UNL1        0.0162
      9 C          65.7669   91.5345   13.7986 C.ar    1  UNL1        0.0188
     10 C          65.1027   92.0238   12.5459 C.ar    1  UNL1        0.0652
     11 C          63.9775   91.2398   11.9383 C.ar    1  UNL1        0.0188
     12 C          63.5165   89.9665   12.5834 C.ar    1  UNL1        0.0162
     13 N          65.5638   93.2971   11.9007 N.ar    1  UNL1       -0.2915
     14 C          65.3333   93.6959   10.4732 C.ar    1  UNL1        0.1825
     15 N          65.9633   95.0404   10.2601 N.ar    1  UNL1       -0.2224
     16 C          66.5831   95.4725   11.5559 C.ar    1  UNL1        0.1137
     17 C          66.3362   94.3951   12.5699 C.ar    1  UNL1        0.0623
     18 C          66.7832   94.4126   14.0016 C.3     1  UNL1        0.0521
     19 N          62.2142   84.4711   12.0604 N.ar    1  UNL1       -0.2162
     20 N          62.1455   83.0430   11.6068 N.ar    1  UNL1       -0.1683
     21 C          62.6653   82.1785   12.7169 C.ar    1  UNL1        0.0810
     22 C          63.0552   83.0723   13.8567 C.ar    1  UNL1        0.0509
     23 C          62.7764   84.4892   13.4509 C.ar    1  UNL1        0.1380
     24 C          60.5347   89.2687    8.8725 C.3     1  UNL1        0.0310
     25 C          60.9546   88.0693    9.6694 C.ar    1  UNL1       -0.0218
     26 C          61.9172   87.0792    9.0839 C.ar    1  UNL1       -0.0027
     27 C          62.3371   85.8798    9.8808 C.ar    1  UNL1        0.0189
     28 C          61.7943   85.6705   11.2634 C.ar    1  UNL1        0.0842
     29 C          60.8316   86.6606   11.8490 C.ar    1  UNL1        0.0189
     30 C          60.4118   87.8600   11.0520 C.ar    1  UNL1       -0.0027
     31 C          62.7758   80.6828   12.6917 C.3     1  UNL1        0.0372
     32 C          62.8944   80.7167   11.1968 C.3     1  UNL1        0.0060
     33 C          62.6572   80.6489   14.1867 C.3     1  UNL1        0.0060
     34 C          62.8863   79.1871   12.6666 C.3     1  UNL1        0.0060
@<TRIPOS>BOND
     1    24    25    1
     2    25    26   ar
     3    26    27   ar
     4    27    28   ar
     5    28    19    1
     6    19    20   ar
     7    20    21   ar
     8    21    31    1
     9    31    32    1
    10    31    33    1
    11    31    34    1
    12    21    22   ar
    13    22    23   ar
    14    23     1    1
    15     1     2   am
    16     2     3    2
    17     2     4   am
    18     4     7    1
    19     7     8   ar
    20     8     9   ar
    21     9    10   ar
    22    10    13    1
    23    13    14   ar
    24    14    15   ar
    25    15    16   ar
    26    16    17   ar
    27    17    18    1
    28    10    11   ar
    29    11    12   ar
    30    28    29   ar
    31    29    30   ar
    32    30    25   ar
    33    23    19   ar
    34    12     7   ar
    35    17    13   ar
    36     1     5    1
    37     4     6    1
@<TRIPOS>MOLECULE
*****
 34 37 0 0 0
SMALL
GASTEIGER

@<TRIPOS>ATOM
      1 N          61.5572   86.3645   12.0246 N.am    1  UNL1       -0.2533
      2 C          62.4779   87.5257   11.7925 C.2     1  UNL1        0.3092
      3 O          63.9610   87.3075   11.7372 O.2     1  UNL1       -0.2521
      4 N          61.9157   88.9050   11.6156 N.am    1  UNL1       -0.2680
      5 H          60.5839   86.5077   12.0609 H       1  UNL1        0.1578
      6 H          60.9423   89.0482   11.6519 H       1  UNL1        0.1564
      7 C          62.8365   90.0662   11.3834 C.ar    1  UNL1        0.0517
      8 C          62.8917   90.7217   10.0354 C.ar    1  UNL1        0.0162
      9 C          63.8125   91.8829    9.8032 C.ar    1  UNL1        0.0188
     10 C          64.6780   92.3885   10.9190 C.ar    1  UNL1        0.0652
     11 C          64.6228   91.7330   12.2671 C.ar    1  UNL1        0.0188
     12 C          63.7020   90.5718   12.4992 C.ar    1  UNL1        0.0162
     13 N          65.5988   93.5496   10.6869 N.ar    1  UNL1       -0.2915
     14 C          65.2626   94.9967   10.8942 C.ar    1  UNL1        0.1825
     15 N          66.4734   95.8090   10.5421 N.ar    1  UNL1       -0.2224
     16 C          67.5580   94.8640   10.1171 C.ar    1  UNL1        0.1137
     17 C          67.0175   93.4676   10.2066 C.ar    1  UNL1        0.0623
     18 C          67.7644   92.2100    9.8742 C.3     1  UNL1        0.0521
     19 N          62.6679   84.4132   13.4751 N.ar    1  UNL1       -0.2162
     20 N          63.1193   83.0102   13.1965 N.ar    1  UNL1       -0.1683
     21 C          62.8499   82.7150   11.7507 C.ar    1  UNL1        0.0810
     22 C          62.2319   83.9356   11.1358 C.ar    1  UNL1        0.0509
     23 C          62.1195   84.9852   12.2015 C.ar    1  UNL1        0.1380
     24 C          62.9979   87.2411   18.7566 C.3     1  UNL1        0.0310
     25 C          62.9154   86.5342   17.4362 C.ar    1  UNL1       -0.0218
     26 C          63.8507   86.9090   16.3251 C.ar    1  UNL1       -0.0027
     27 C          63.7682   86.2020   15.0047 C.ar    1  UNL1        0.0189
     28 C          62.7504   85.1202   14.7955 C.ar    1  UNL1        0.0842
     29 C          61.8151   84.7454   15.9067 C.ar    1  UNL1        0.0189
     30 C          61.8976   85.4524   17.2270 C.ar    1  UNL1       -0.0027
     31 C          63.1464   81.4255   11.0440 C.3     1  UNL1        0.0372
     32 C          62.4521   80.6673   12.1363 C.3     1  UNL1        0.0060
     33 C          63.8407   82.1838    9.9518 C.3     1  UNL1        0.0060
     34 C          63.4429   80.1361   10.3373 C.3     1  UNL1        0.0060
@<TRIPOS>BOND
     1    24    25    1
     2    25    26   ar
     3    26    27   ar
     4    27    28   ar
     5    28    19    1
     6    19    20   ar
     7    20    21   ar
     8    21    31    1
     9    31    32    1
    10    31    33    1
    11    31    34    1
    12    21    22   ar
    13    22    23   ar
    14    23     1    1
    15     1     2   am
    16     2     3    2
    17     2     4   am
    18     4     7    1
    19     7     8   ar
    20     8     9   ar
    21     9    10   ar
    22    10    13    1
    23    13    14   ar
    24    14    15   ar
    25    15    16   ar
    26    16    17   ar
    27    17    18    1
    28    10    11   ar
    29    11    12   ar
    30    28    29   ar
    31    29    30   ar
    32    30    25   ar
    33    23    19   ar
    34    12     7   ar
    35    17    13   ar
    36     1     5    1
    37     4     6    1
@<TRIPOS>MOLECULE
*****
 34 37 0 0 0
SMALL
GASTEIGER

@<TRIPOS>ATOM
      1 N          61.7020   87.9941   12.1775 N.am    1  UNL1       -0.2533
      2 C          62.9092   88.7335   12.6731 C.2     1  UNL1        0.3092
      3 O          64.2634   88.0921   12.6015 O.2     1  UNL1       -0.2521
      4 N          62.7626   90.1143   13.2404 N.am    1  UNL1       -0.2680
      5 H          60.8133   88.4151   12.2245 H       1  UNL1        0.1578
      6 H          61.8739   90.5353   13.2874 H       1  UNL1        0.1564
      7 C          63.9699   90.8537   13.7360 C.ar    1  UNL1        0.0517
      8 C          64.8596   91.5728   12.7657 C.ar    1  UNL1        0.0162
      9 C          66.0670   92.3121   13.2613 C.ar    1  UNL1        0.0188
     10 C          66.3847   92.3325   14.7271 C.ar    1  UNL1        0.0652
     11 C          65.4950   91.6134   15.6973 C.ar    1  UNL1        0.0188
     12 C          64.2876   90.8740   15.2017 C.ar    1  UNL1        0.0162
     13 N          67.5920   93.0719   15.2227 N.ar    1  UNL1       -0.2915
     14 C          67.5935   94.1822   16.2312 C.ar    1  UNL1        0.1825
     15 N          69.0122   94.6273   16.4286 N.ar    1  UNL1       -0.2224
     16 C          69.8877   93.7920   15.5420 C.ar    1  UNL1        0.1137
     17 C          69.0099   92.8307   14.7967 C.ar    1  UNL1        0.0623
     18 C          69.4694   91.8079   13.8004 C.3     1  UNL1        0.0521
     19 N          61.3876   86.1630   10.2557 N.ar    1  UNL1       -0.2162
     20 N          61.7361   84.7117   10.1063 N.ar    1  UNL1       -0.1683
     21 C          62.4126   84.2651   11.3684 C.ar    1  UNL1        0.0810
     22 C          62.4821   85.4403   12.2979 C.ar    1  UNL1        0.0509
     23 C          61.8486   86.6132   11.6102 C.ar    1  UNL1        0.1380
     24 C          58.6329   89.5688    6.1555 C.3     1  UNL1        0.0310
     25 C          59.3216   88.7174    7.1806 C.ar    1  UNL1       -0.0218
     26 C          60.1182   89.3603    8.2769 C.ar    1  UNL1       -0.0027
     27 C          60.8068   88.5088    9.3020 C.ar    1  UNL1        0.0189
     28 C          60.6989   87.0144    9.2307 C.ar    1  UNL1        0.0842
     29 C          59.9023   86.3715    8.1343 C.ar    1  UNL1        0.0189
     30 C          59.2136   87.2230    7.1093 C.ar    1  UNL1       -0.0027
     31 C          62.9289   82.8854   11.6513 C.3     1  UNL1        0.0372
     32 C          62.1421   82.8528   12.9280 C.3     1  UNL1        0.0060
     33 C          63.7156   82.9180   10.3746 C.3     1  UNL1        0.0060
     34 C          63.4451   81.5058   11.9342 C.3     1  UNL1        0.0060
@<TRIPOS>BOND
     1    24    25    1
     2    25    26   ar
     3    26    27   ar
     4    27    28   ar
     5    28    19    1
     6    19    20   ar
     7    20    21   ar
     8    21    31    1
     9    31    32    1
    10    31    33    1
    11    31    34    1
    12    21    22   ar
    13    22    23   ar
    14    23     1    1
    15     1     2   am
    16     2     3    2
    17     2     4   am
    18     4     7    1
    19     7     8   ar
    20     8     9   ar
    21     9    10   ar
    22    10    13    1
    23    13    14   ar
    24    14    15   ar
    25    15    16   ar
    26    16    17   ar
    27    17    18    1
    28    10    11   ar
    29    11    12   ar
    30    28    29   ar
    31    29    30   ar
    32    30    25   ar
    33    23    19   ar
    34    12     7   ar
    35    17    13   ar
    36     1     5    1
    37     4     6    1
