@<TRIPOS>MOLECULE
*****
 33 37 0 0 0
SMALL
GASTEIGER

@<TRIPOS>ATOM
      1 C          62.6590   84.8566   11.0352 C.ar    1  UNL1        0.0004
      2 C          62.2119   85.3573    9.6939 C.ar    1  UNL1        0.0031
      3 C          62.0985   86.8319    9.4435 C.ar    1  UNL1        0.0370
      4 C          62.4323   87.8057   10.5344 C.ar    1  UNL1        0.1415
      5 C          62.8795   87.3050   11.8758 C.ar    1  UNL1        0.0699
      6 C          62.9928   85.8305   12.1262 C.ar    1  UNL1        0.0061
      7 C          63.2578   88.0980   13.0915 C.ar    1  UNL1        0.1718
      8 N          63.6917   87.4726   14.3840 N.ar    1  UNL1       -0.1258
      9 N          63.9845   88.5757   15.3575 N.ar    1  UNL1       -0.0913
     10 C          63.7315   89.8828   14.6666 C.ar    1  UNL1        0.3248
     11 N          63.2823   89.5876   13.2662 N.ar    1  UNL1       -0.2613
     12 C          62.9347   90.6521   12.2682 C.3     1  UNL1        0.1592
     13 C          62.4766   90.4900   10.8491 C.3     1  UNL1        0.2299
     14 O          62.2530   89.2231   10.0775 O.3     1  UNL1       -0.4733
     15 C          61.8916   80.7432   14.1161 C.3     1  UNL1        0.0521
     16 C          62.3887   81.3253   12.8261 C.ar    1  UNL1        0.0594
     17 C          62.2753   82.7999   12.5757 C.ar    1  UNL1        0.0147
     18 C          62.7724   83.3820   11.2857 C.ar    1  UNL1        0.0027
     19 C          63.3829   82.4894   10.2461 C.ar    1  UNL1        0.0207
     20 C          63.4963   81.0149   10.4965 C.ar    1  UNL1        0.0984
     21 N          62.9992   80.4327   11.7865 N.ar    1  UNL1       -0.2481
     22 O          63.8983   91.2458   15.2702 O.3     1  UNL1       -0.4223
     23 C          65.1644   92.0172   15.0423 C.ar    1  UNL1        0.1517
     24 C          66.0422   92.3781   16.2038 C.ar    1  UNL1        0.0378
     25 C          67.3083   93.1496   15.9758 C.ar    1  UNL1        0.0062
     26 C          67.6965   93.5600   14.5863 C.ar    1  UNL1        0.0374
     27 C          66.8187   93.1992   13.4247 C.ar    1  UNL1        0.1499
     28 C          65.5526   92.4277   13.6528 C.ar    1  UNL1        0.0747
     29 O          67.2069   93.6096   12.0353 O.3     1  UNL1       -0.4044
     30 C          66.2437   94.3842   11.1853 C.3     1  UNL1        0.5753
     31 F          65.2805   95.1587   10.3354 F       1  UNL1       -0.1328
     32 F          66.1128   95.4118   12.2701 F       1  UNL1       -0.1328
     33 F          66.3747   93.3566   10.1005 F       1  UNL1       -0.1328
@<TRIPOS>BOND
     1    15    16    1
     2    16    17   ar
     3    17    18   ar
     4    18     1    1
     5     1     2   ar
     6     2     3   ar
     7     3     4   ar
     8     4     5   ar
     9     5     6   ar
    10     5     7    1
    11     7     8   ar
    12     8     9   ar
    13     9    10   ar
    14    10    22    1
    15    22    23    1
    16    23    24   ar
    17    24    25   ar
    18    25    26   ar
    19    26    27   ar
    20    27    29    1
    21    29    30    1
    22    30    31    1
    23    30    32    1
    24    30    33    1
    25    27    28   ar
    26    10    11   ar
    27    11    12    1
    28    12    13    1
    29    13    14    1
    30    18    19   ar
    31    19    20   ar
    32    20    21   ar
    33    21    16   ar
    34     6     1   ar
    35    11     7   ar
    36    14     4    1
    37    28    23   ar
@<TRIPOS>MOLECULE
*****
 33 37 0 0 0
SMALL
GASTEIGER

@<TRIPOS>ATOM
      1 C          59.5652   88.8960    7.1345 C.ar    1  UNL1        0.0004
      2 C          59.1868   87.4611    6.9158 C.ar    1  UNL1        0.0031
      3 C          59.6855   86.4026    7.8542 C.ar    1  UNL1        0.0370
      4 C          60.5627   86.7789    9.0113 C.ar    1  UNL1        0.1415
      5 C          60.9411   88.2138    9.2300 C.ar    1  UNL1        0.0699
      6 C          60.4424   89.2723    8.2916 C.ar    1  UNL1        0.0061
      7 C          61.7981   88.8005   10.3123 C.ar    1  UNL1        0.1718
      8 N          62.1039   90.2649   10.4217 N.ar    1  UNL1       -0.1258
      9 N          62.9831   90.4666   11.6202 N.ar    1  UNL1       -0.0913
     10 C          63.2207   89.1269   12.2514 C.ar    1  UNL1        0.3248
     11 N          62.4884   88.0971   11.4432 N.ar    1  UNL1       -0.2613
     12 C          62.4921   86.6334   11.7711 C.3     1  UNL1        0.1592
     13 C          61.8065   85.5115   11.0491 C.3     1  UNL1        0.2299
     14 O          60.9478   85.5763    9.8209 O.3     1  UNL1       -0.4733
     15 C          60.5153   92.6190    3.6364 C.3     1  UNL1        0.0521
     16 C          59.5415   91.8162    4.4470 C.ar    1  UNL1        0.0594
     17 C          60.0403   90.7575    5.3854 C.ar    1  UNL1        0.0147
     18 C          59.0665   89.9547    6.1960 C.ar    1  UNL1        0.0027
     19 C          57.5940   90.2104    6.0683 C.ar    1  UNL1        0.0207
     20 C          57.0952   91.2689    5.1299 C.ar    1  UNL1        0.0984
     21 N          58.0690   92.0719    4.3192 N.ar    1  UNL1       -0.2481
     22 O          64.0459   88.8632   13.4761 O.3     1  UNL1       -0.4223
     23 C          64.3587   89.9821   14.4250 C.ar    1  UNL1        0.1517
     24 C          63.5188   90.1820   15.6516 C.ar    1  UNL1        0.0378
     25 C          63.8317   91.3009   16.6005 C.ar    1  UNL1        0.0062
     26 C          64.9843   92.2197   16.3226 C.ar    1  UNL1        0.0374
     27 C          65.8241   92.0197   15.0960 C.ar    1  UNL1        0.1499
     28 C          65.5112   90.9008   14.1471 C.ar    1  UNL1        0.0747
     29 O          66.9767   92.9385   14.8181 O.3     1  UNL1       -0.4044
     30 C          68.2049   92.8821   15.6774 C.3     1  UNL1        0.5753
     31 F          69.4331   92.8255   16.5367 F       1  UNL1       -0.1328
     32 F          68.1963   94.3779   15.7881 F       1  UNL1       -0.1328
     33 F          68.2135   91.3862   15.5667 F       1  UNL1       -0.1328
@<TRIPOS>BOND
     1    15    16    1
     2    16    17   ar
     3    17    18   ar
     4    18     1    1
     5     1     2   ar
     6     2     3   ar
     7     3     4   ar
     8     4     5   ar
     9     5     6   ar
    10     5     7    1
    11     7     8   ar
    12     8     9   ar
    13     9    10   ar
    14    10    22    1
    15    22    23    1
    16    23    24   ar
    17    24    25   ar
    18    25    26   ar
    19    26    27   ar
    20    27    29    1
    21    29    30    1
    22    30    31    1
    23    30    32    1
    24    30    33    1
    25    27    28   ar
    26    10    11   ar
    27    11    12    1
    28    12    13    1
    29    13    14    1
    30    18    19   ar
    31    19    20   ar
    32    20    21   ar
    33    21    16   ar
    34     6     1   ar
    35    11     7   ar
    36    14     4    1
    37    28    23   ar
@<TRIPOS>MOLECULE
*****
 33 37 0 0 0
SMALL
GASTEIGER

@<TRIPOS>ATOM
      1 C          62.0981   85.6995   10.3295 C.ar    1  UNL1        0.0004
      2 C          62.4866   84.4181   11.0056 C.ar    1  UNL1        0.0031
      3 C          63.1550   84.4511   12.3481 C.ar    1  UNL1        0.0370
      4 C          63.4349   85.7656   13.0144 C.ar    1  UNL1        0.1415
      5 C          63.0464   87.0469   12.3383 C.ar    1  UNL1        0.0699
      6 C          62.3781   87.0139   10.9959 C.ar    1  UNL1        0.0061
      7 C          63.2323   88.4540   12.8234 C.ar    1  UNL1        0.1718
      8 N          62.7963   89.6606   12.0461 N.ar    1  UNL1       -0.1258
      9 N          63.1471   90.8795   12.8468 N.ar    1  UNL1       -0.0913
     10 C          63.7998   90.4263   14.1190 C.ar    1  UNL1        0.3248
     11 N          63.8525   88.9273   14.1046 N.ar    1  UNL1       -0.2613
     12 C          64.4401   88.1104   15.2170 C.3     1  UNL1        0.1592
     13 C          64.5525   86.6184   15.3230 C.3     1  UNL1        0.2299
     14 O          64.1051   85.5748   14.3427 O.3     1  UNL1       -0.4733
     15 C          62.0509   84.1748    5.3623 C.3     1  UNL1        0.0521
     16 C          61.4061   84.9042    6.5034 C.ar    1  UNL1        0.0594
     17 C          62.0745   84.9371    7.8459 C.ar    1  UNL1        0.0147
     18 C          61.4297   85.6665    8.9871 C.ar    1  UNL1        0.0027
     19 C          60.1165   86.3628    8.7858 C.ar    1  UNL1        0.0207
     20 C          59.4481   86.3299    7.4434 C.ar    1  UNL1        0.0984
     21 N          60.0929   85.6005    6.3022 N.ar    1  UNL1       -0.2481
     22 O          64.3103   91.3161   15.2135 O.3     1  UNL1       -0.4223
     23 C          65.6996   91.8766   15.1378 C.ar    1  UNL1        0.1517
     24 C          66.2983   92.5606   16.3310 C.ar    1  UNL1        0.0378
     25 C          67.6876   93.1212   16.2553 C.ar    1  UNL1        0.0062
     26 C          68.4780   92.9977   14.9865 C.ar    1  UNL1        0.0374
     27 C          67.8793   92.3137   13.7933 C.ar    1  UNL1        0.1499
     28 C          66.4900   91.7532   13.8691 C.ar    1  UNL1        0.0747
     29 O          68.6697   92.1903   12.5245 O.3     1  UNL1       -0.4044
     30 C          67.9873   92.3449   11.1977 C.3     1  UNL1        0.5753
     31 F          67.3049   92.4994    9.8708 F       1  UNL1       -0.1328
     32 F          67.2020   93.5036   11.7366 F       1  UNL1       -0.1328
     33 F          68.7726   91.1860   10.6588 F       1  UNL1       -0.1328
@<TRIPOS>BOND
     1    15    16    1
     2    16    17   ar
     3    17    18   ar
     4    18     1    1
     5     1     2   ar
     6     2     3   ar
     7     3     4   ar
     8     4     5   ar
     9     5     6   ar
    10     5     7    1
    11     7     8   ar
    12     8     9   ar
    13     9    10   ar
    14    10    22    1
    15    22    23    1
    16    23    24   ar
    17    24    25   ar
    18    25    26   ar
    19    26    27   ar
    20    27    29    1
    21    29    30    1
    22    30    31    1
    23    30    32    1
    24    30    33    1
    25    27    28   ar
    26    10    11   ar
    27    11    12    1
    28    12    13    1
    29    13    14    1
    30    18    19   ar
    31    19    20   ar
    32    20    21   ar
    33    21    16   ar
    34     6     1   ar
    35    11     7   ar
    36    14     4    1
    37    28    23   ar
@<TRIPOS>MOLECULE
*****
 33 37 0 0 0
SMALL
GASTEIGER

@<TRIPOS>ATOM
      1 C          64.3158   90.6906   12.4337 C.ar    1  UNL1        0.0004
      2 C          63.5406   90.7657   11.1518 C.ar    1  UNL1        0.0031
      3 C          62.7294   89.5892   10.6960 C.ar    1  UNL1        0.0370
      4 C          62.6934   88.3377   11.5220 C.ar    1  UNL1        0.1415
      5 C          63.4686   88.2626   12.8040 C.ar    1  UNL1        0.0699
      6 C          64.2798   89.4391   13.2598 C.ar    1  UNL1        0.0061
      7 C          63.5695   87.1199   13.7703 C.ar    1  UNL1        0.1718
      8 N          64.3855   87.1708   15.0280 N.ar    1  UNL1       -0.1258
      9 N          64.2404   85.8522   15.7283 N.ar    1  UNL1       -0.0913
     10 C          63.3348   84.9865   14.9035 C.ar    1  UNL1        0.3248
     11 N          62.9201   85.7699   13.6934 N.ar    1  UNL1       -0.2613
     12 C          62.0095   85.2293   12.6312 C.3     1  UNL1        0.1592
     13 C          61.5232   85.9051   11.3835 C.3     1  UNL1        0.2299
     14 O          61.8276   87.2885   10.8899 O.3     1  UNL1       -0.4733
     15 C          67.1010   93.0828   16.1107 C.3     1  UNL1        0.0521
     16 C          66.5197   93.0632   14.7282 C.ar    1  UNL1        0.0594
     17 C          65.7084   91.8867   14.2722 C.ar    1  UNL1        0.0147
     18 C          65.1270   91.8671   12.8897 C.ar    1  UNL1        0.0027
     19 C          65.3569   93.0240   11.9629 C.ar    1  UNL1        0.0207
     20 C          66.1681   94.2005   12.4188 C.ar    1  UNL1        0.0984
     21 N          66.7495   94.2201   13.8014 N.ar    1  UNL1       -0.2481
     22 O          62.9171   83.5836   15.2314 O.3     1  UNL1       -0.4223
     23 C          62.8780   82.5413   14.1534 C.ar    1  UNL1        0.1517
     24 C          62.1570   81.2470   14.3874 C.ar    1  UNL1        0.0378
     25 C          62.1179   80.2047   13.3093 C.ar    1  UNL1        0.0062
     26 C          62.7999   80.4569   11.9973 C.ar    1  UNL1        0.0374
     27 C          63.5209   81.7512   11.7633 C.ar    1  UNL1        0.1499
     28 C          63.5600   82.7935   12.8414 C.ar    1  UNL1        0.0747
     29 O          64.2028   82.0033   10.4513 O.3     1  UNL1       -0.4044
     30 C          64.0605   83.3351    9.7758 C.3     1  UNL1        0.5753
     31 F          63.9181   84.6668    9.1003 F       1  UNL1       -0.1328
     32 F          65.2895   83.8249   10.4825 F       1  UNL1       -0.1328
     33 F          62.8315   82.8452    9.0691 F       1  UNL1       -0.1328
@<TRIPOS>BOND
     1    15    16    1
     2    16    17   ar
     3    17    18   ar
     4    18     1    1
     5     1     2   ar
     6     2     3   ar
     7     3     4   ar
     8     4     5   ar
     9     5     6   ar
    10     5     7    1
    11     7     8   ar
    12     8     9   ar
    13     9    10   ar
    14    10    22    1
    15    22    23    1
    16    23    24   ar
    17    24    25   ar
    18    25    26   ar
    19    26    27   ar
    20    27    29    1
    21    29    30    1
    22    30    31    1
    23    30    32    1
    24    30    33    1
    25    27    28   ar
    26    10    11   ar
    27    11    12    1
    28    12    13    1
    29    13    14    1
    30    18    19   ar
    31    19    20   ar
    32    20    21   ar
    33    21    16   ar
    34     6     1   ar
    35    11     7   ar
    36    14     4    1
    37    28    23   ar
@<TRIPOS>MOLECULE
*****
 33 37 0 0 0
SMALL
GASTEIGER

@<TRIPOS>ATOM
      1 C          63.3309   83.5184   13.6965 C.ar    1  UNL1        0.0004
      2 C          63.9018   83.6663   15.0757 C.ar    1  UNL1        0.0031
      3 C          64.2264   85.0294   15.6108 C.ar    1  UNL1        0.0370
      4 C          63.9801   86.2447   14.7668 C.ar    1  UNL1        0.1415
      5 C          63.4091   86.0969   13.3876 C.ar    1  UNL1        0.0699
      6 C          63.0846   84.7337   12.8525 C.ar    1  UNL1        0.0061
      7 C          63.0885   87.1685   12.3883 C.ar    1  UNL1        0.1718
      8 N          62.5158   86.8879   11.0306 N.ar    1  UNL1       -0.1258
      9 N          62.3330   88.1986   10.3246 N.ar    1  UNL1       -0.0913
     10 C          62.7927   89.2894   11.2460 C.ar    1  UNL1        0.3248
     11 N          63.2596   88.6528   12.5214 N.ar    1  UNL1       -0.2613
     12 C          63.7936   89.4319   13.6866 C.3     1  UNL1        0.1592
     13 C          64.2884   88.9193   15.0066 C.3     1  UNL1        0.2299
     14 O          64.3713   87.5008   15.4873 O.3     1  UNL1       -0.4733
     15 C          63.1176   80.1777    9.7223 C.3     1  UNL1        0.0521
     16 C          62.8996   80.4849   11.1742 C.ar    1  UNL1        0.0594
     17 C          63.2243   81.8481   11.7094 C.ar    1  UNL1        0.0147
     18 C          63.0063   82.1552   13.1613 C.ar    1  UNL1        0.0027
     19 C          62.4637   81.0992   14.0781 C.ar    1  UNL1        0.0207
     20 C          62.1391   79.7361   13.5429 C.ar    1  UNL1        0.0984
     21 N          62.3570   79.4289   12.0909 N.ar    1  UNL1       -0.2481
     22 O          62.7865   90.7588   10.9447 O.3     1  UNL1       -0.4223
     23 C          63.9900   91.5951   11.2642 C.ar    1  UNL1        0.1517
     24 C          64.8405   92.1400   10.1553 C.ar    1  UNL1        0.0378
     25 C          66.0441   92.9763   10.4750 C.ar    1  UNL1        0.0062
     26 C          66.3970   93.2677   11.9034 C.ar    1  UNL1        0.0374
     27 C          65.5465   92.7228   13.0123 C.ar    1  UNL1        0.1499
     28 C          64.3429   91.8865   12.6927 C.ar    1  UNL1        0.0747
     29 O          65.8994   93.0141   14.4408 O.3     1  UNL1       -0.4044
     30 C          67.1915   92.5098   15.0120 C.3     1  UNL1        0.5753
     31 F          68.4835   92.0055   15.5832 F       1  UNL1       -0.1328
     32 F          66.7820   91.1020   14.6952 F       1  UNL1       -0.1328
     33 F          67.6009   93.9176   15.3288 F       1  UNL1       -0.1328
@<TRIPOS>BOND
     1    15    16    1
     2    16    17   ar
     3    17    18   ar
     4    18     1    1
     5     1     2   ar
     6     2     3   ar
     7     3     4   ar
     8     4     5   ar
     9     5     6   ar
    10     5     7    1
    11     7     8   ar
    12     8     9   ar
    13     9    10   ar
    14    10    22    1
    15    22    23    1
    16    23    24   ar
    17    24    25   ar
    18    25    26   ar
    19    26    27   ar
    20    27    29    1
    21    29    30    1
    22    30    31    1
    23    30    32    1
    24    30    33    1
    25    27    28   ar
    26    10    11   ar
    27    11    12    1
    28    12    13    1
    29    13    14    1
    30    18    19   ar
    31    19    20   ar
    32    20    21   ar
    33    21    16   ar
    34     6     1   ar
    35    11     7   ar
    36    14     4    1
    37    28    23   ar
@<TRIPOS>MOLECULE
*****
 33 37 0 0 0
SMALL
GASTEIGER

@<TRIPOS>ATOM
      1 C          63.3537   83.2713   13.5966 C.ar    1  UNL1        0.0004
      2 C          63.9856   83.4096   14.9499 C.ar    1  UNL1        0.0031
      3 C          64.3278   84.7696   15.4823 C.ar    1  UNL1        0.0370
      4 C          64.0381   85.9911   14.6614 C.ar    1  UNL1        0.1415
      5 C          63.4062   85.8527   13.3081 C.ar    1  UNL1        0.0699
      6 C          63.0640   84.4928   12.7757 C.ar    1  UNL1        0.0061
      7 C          63.0358   86.9316   12.3341 C.ar    1  UNL1        0.1718
      8 N          62.4037   86.6603   11.0011 N.ar    1  UNL1       -0.1258
      9 N          62.1832   87.9764   10.3161 N.ar    1  UNL1       -0.0913
     10 C          62.6791   89.0611   11.2257 C.ar    1  UNL1        0.3248
     11 N          63.2060   88.4155   12.4729 N.ar    1  UNL1       -0.2613
     12 C          63.7885   89.1869   13.6199 C.3     1  UNL1        0.1592
     13 C          64.3447   88.6649   14.9115 C.3     1  UNL1        0.2299
     14 O          64.4558   87.2426   15.3750 O.3     1  UNL1       -0.4733
     15 C          63.0026   79.9568    9.6102 C.3     1  UNL1        0.0521
     16 C          62.8359   80.2541   11.0710 C.ar    1  UNL1        0.0594
     17 C          63.1782   81.6140   11.6034 C.ar    1  UNL1        0.0147
     18 C          63.0115   81.9113   13.0642 C.ar    1  UNL1        0.0027
     19 C          62.5026   80.8487   13.9925 C.ar    1  UNL1        0.0207
     20 C          62.1604   79.4888   13.4601 C.ar    1  UNL1        0.0984
     21 N          62.3270   79.1914   11.9993 N.ar    1  UNL1       -0.2481
     22 O          62.6526   90.5332   10.9384 O.3     1  UNL1       -0.4223
     23 C          63.8363   91.3866   11.2856 C.ar    1  UNL1        0.1517
     24 C          64.1593   91.6723   12.7222 C.ar    1  UNL1        0.0378
     25 C          65.3431   92.5258   13.0693 C.ar    1  UNL1        0.0062
     26 C          66.2037   93.0933   11.9798 C.ar    1  UNL1        0.0374
     27 C          65.8807   92.8076   10.5432 C.ar    1  UNL1        0.1499
     28 C          64.6969   91.9542   10.1961 C.ar    1  UNL1        0.0747
     29 O          66.7413   93.3752    9.4536 O.3     1  UNL1       -0.4044
     30 C          68.2045   93.0484    9.4066 C.3     1  UNL1        0.5753
     31 F          69.6678   92.7216    9.3596 F       1  UNL1       -0.1328
     32 F          67.8824   91.5884    9.5274 F       1  UNL1       -0.1328
     33 F          68.5267   94.5084    9.2859 F       1  UNL1       -0.1328
@<TRIPOS>BOND
     1    15    16    1
     2    16    17   ar
     3    17    18   ar
     4    18     1    1
     5     1     2   ar
     6     2     3   ar
     7     3     4   ar
     8     4     5   ar
     9     5     6   ar
    10     5     7    1
    11     7     8   ar
    12     8     9   ar
    13     9    10   ar
    14    10    22    1
    15    22    23    1
    16    23    24   ar
    17    24    25   ar
    18    25    26   ar
    19    26    27   ar
    20    27    29    1
    21    29    30    1
    22    30    31    1
    23    30    32    1
    24    30    33    1
    25    27    28   ar
    26    10    11   ar
    27    11    12    1
    28    12    13    1
    29    13    14    1
    30    18    19   ar
    31    19    20   ar
    32    20    21   ar
    33    21    16   ar
    34     6     1   ar
    35    11     7   ar
    36    14     4    1
    37    28    23   ar
@<TRIPOS>MOLECULE
*****
 33 37 0 0 0
SMALL
GASTEIGER

@<TRIPOS>ATOM
      1 C          63.1556   83.6378   13.7176 C.ar    1  UNL1        0.0004
      2 C          62.7338   82.9761   14.9960 C.ar    1  UNL1        0.0031
      3 C          62.5765   83.7906   16.2456 C.ar    1  UNL1        0.0370
      4 C          62.8408   85.2668   16.2169 C.ar    1  UNL1        0.1415
      5 C          63.2626   85.9285   14.9386 C.ar    1  UNL1        0.0699
      6 C          63.4199   85.1140   13.6889 C.ar    1  UNL1        0.0061
      7 C          63.5738   87.3751   14.6926 C.ar    1  UNL1        0.1718
      8 N          63.9883   87.9156   13.3562 N.ar    1  UNL1       -0.1258
      9 N          64.2109   89.3919   13.5020 N.ar    1  UNL1       -0.0913
     10 C          63.9339   89.7637   14.9285 C.ar    1  UNL1        0.3248
     11 N          63.5402   88.5173   15.6644 N.ar    1  UNL1       -0.2613
     12 C          63.1870   88.4950   17.1221 C.3     1  UNL1        0.1592
     13 C          62.7803   87.3250   17.9680 C.3     1  UNL1        0.2299
     14 O          62.6262   85.8883   17.5651 O.3     1  UNL1       -0.4733
     15 C          62.5578   79.1514   11.1650 C.3     1  UNL1        0.0521
     16 C          63.0141   80.5800   11.1915 C.ar    1  UNL1        0.0594
     17 C          62.8567   81.3946   12.4413 C.ar    1  UNL1        0.0147
     18 C          63.3129   82.8232   12.4678 C.ar    1  UNL1        0.0027
     19 C          63.9266   83.4374   11.2446 C.ar    1  UNL1        0.0207
     20 C          64.0839   82.6230    9.9949 C.ar    1  UNL1        0.0984
     21 N          63.6277   81.1942    9.9683 N.ar    1  UNL1       -0.2481
     22 O          64.0333   91.1403   15.5160 O.3     1  UNL1       -0.4223
     23 C          65.2353   91.9917   15.2329 C.ar    1  UNL1        0.1517
     24 C          66.1496   92.3943   16.3518 C.ar    1  UNL1        0.0378
     25 C          67.3517   93.2458   16.0685 C.ar    1  UNL1        0.0062
     26 C          67.6393   93.6945   14.6665 C.ar    1  UNL1        0.0374
     27 C          66.7250   93.2919   13.5476 C.ar    1  UNL1        0.1499
     28 C          65.5230   92.4405   13.8308 C.ar    1  UNL1        0.0747
     29 O          67.0127   93.7407   12.1455 O.3     1  UNL1       -0.4044
     30 C          67.2323   92.7255   11.0632 C.3     1  UNL1        0.5753
     31 F          67.4521   91.7103    9.9811 F       1  UNL1       -0.1328
     32 F          66.3756   93.5318   10.1329 F       1  UNL1       -0.1328
     33 F          68.0891   91.9191   11.9937 F       1  UNL1       -0.1328
@<TRIPOS>BOND
     1    15    16    1
     2    16    17   ar
     3    17    18   ar
     4    18     1    1
     5     1     2   ar
     6     2     3   ar
     7     3     4   ar
     8     4     5   ar
     9     5     6   ar
    10     5     7    1
    11     7     8   ar
    12     8     9   ar
    13     9    10   ar
    14    10    22    1
    15    22    23    1
    16    23    24   ar
    17    24    25   ar
    18    25    26   ar
    19    26    27   ar
    20    27    29    1
    21    29    30    1
    22    30    31    1
    23    30    32    1
    24    30    33    1
    25    27    28   ar
    26    10    11   ar
    27    11    12    1
    28    12    13    1
    29    13    14    1
    30    18    19   ar
    31    19    20   ar
    32    20    21   ar
    33    21    16   ar
    34     6     1   ar
    35    11     7   ar
    36    14     4    1
    37    28    23   ar
@<TRIPOS>MOLECULE
*****
 33 37 0 0 0
SMALL
GASTEIGER

@<TRIPOS>ATOM
      1 C          62.4975   84.0144   11.1812 C.ar    1  UNL1        0.0004
      2 C          61.9943   84.3266    9.8031 C.ar    1  UNL1        0.0031
      3 C          61.8904   85.7520    9.3477 C.ar    1  UNL1        0.0370
      4 C          62.2897   86.8651   10.2704 C.ar    1  UNL1        0.1415
      5 C          62.7929   86.5529   11.6485 C.ar    1  UNL1        0.0699
      6 C          62.8968   85.1276   12.1039 C.ar    1  UNL1        0.0061
      7 C          63.2400   87.5041   12.7187 C.ar    1  UNL1        0.1718
      8 N          63.7259   87.0618   14.0671 N.ar    1  UNL1       -0.1258
      9 N          64.0806   88.2868   14.8568 N.ar    1  UNL1       -0.0913
     10 C          63.8138   89.4862   13.9964 C.ar    1  UNL1        0.3248
     11 N          63.2944   89.0025   12.6750 N.ar    1  UNL1       -0.2613
     12 C          62.9150   89.9197   11.5504 C.3     1  UNL1        0.1592
     13 C          62.3876   89.5652   10.1917 C.3     1  UNL1        0.2299
     14 O          62.1094   88.2057    9.6220 O.3     1  UNL1       -0.4733
     15 C          63.0390   78.9656   10.0778 C.3     1  UNL1        0.0521
     16 C          62.8721   80.0646   11.0850 C.ar    1  UNL1        0.0594
     17 C          62.7682   81.4900   10.6295 C.ar    1  UNL1        0.0147
     18 C          62.6013   82.5889   11.6367 C.ar    1  UNL1        0.0027
     19 C          62.5383   82.2625   13.0994 C.ar    1  UNL1        0.0207
     20 C          62.6422   80.8372   13.5549 C.ar    1  UNL1        0.0984
     21 N          62.8091   79.7381   12.5477 N.ar    1  UNL1       -0.2481
     22 O          64.0289   90.9180   14.3887 O.3     1  UNL1       -0.4223
     23 C          65.1297   91.7130   13.7516 C.ar    1  UNL1        0.1517
     24 C          64.9116   92.3595   12.4157 C.ar    1  UNL1        0.0378
     25 C          66.0126   93.1546   11.7786 C.ar    1  UNL1        0.0062
     26 C          67.3315   93.3031   12.4774 C.ar    1  UNL1        0.0374
     27 C          67.5496   92.6567   13.8132 C.ar    1  UNL1        0.1499
     28 C          66.4486   91.8616   14.4503 C.ar    1  UNL1        0.0747
     29 O          68.8685   92.8053   14.5120 O.3     1  UNL1       -0.4044
     30 C          68.9586   93.5955   15.7838 C.3     1  UNL1        0.5753
     31 F          69.0487   94.3857   17.0556 F       1  UNL1       -0.1328
     32 F          69.6085   92.4271   16.4637 F       1  UNL1       -0.1328
     33 F          68.3087   94.7639   15.1039 F       1  UNL1       -0.1328
@<TRIPOS>BOND
     1    15    16    1
     2    16    17   ar
     3    17    18   ar
     4    18     1    1
     5     1     2   ar
     6     2     3   ar
     7     3     4   ar
     8     4     5   ar
     9     5     6   ar
    10     5     7    1
    11     7     8   ar
    12     8     9   ar
    13     9    10   ar
    14    10    22    1
    15    22    23    1
    16    23    24   ar
    17    24    25   ar
    18    25    26   ar
    19    26    27   ar
    20    27    29    1
    21    29    30    1
    22    30    31    1
    23    30    32    1
    24    30    33    1
    25    27    28   ar
    26    10    11   ar
    27    11    12    1
    28    12    13    1
    29    13    14    1
    30    18    19   ar
    31    19    20   ar
    32    20    21   ar
    33    21    16   ar
    34     6     1   ar
    35    11     7   ar
    36    14     4    1
    37    28    23   ar
