@<TRIPOS>MOLECULE
*****
 30 33 0 0 0
SMALL
GASTEIGER

@<TRIPOS>ATOM
      1 C          63.4650   83.8983   13.1034 C.ar    1  UNL1        0.2172
      2 N          62.3826   84.9086   12.8633 N.ar    1  UNL1       -0.2126
      3 C          62.0789   85.3648   11.4671 C.ar    1  UNL1        0.0994
      4 C          62.8575   84.8108   10.3109 C.ar    1  UNL1        0.0207
      5 C          63.9399   83.8005   10.5510 C.ar    1  UNL1        0.0994
      6 N          64.2436   83.3443   11.9472 N.ar    1  UNL1       -0.2126
      7 N          63.7688   83.4420   14.4996 N.pl3   1  UNL1       -0.2990
      8 H          63.4503   82.5640   14.8108 H       1  UNL1        0.1500
      9 C          64.5579   84.3235   15.4218 C.3     1  UNL1        0.1181
     10 C          63.3099   88.5992   16.0625 C.ar    1  UNL1        0.2533
     11 N          62.8264   87.5289   16.9956 N.ar    1  UNL1       -0.2085
     12 C          63.2424   86.1037   16.7820 C.ar    1  UNL1        0.0995
     13 C          64.1419   85.7488   15.6353 C.ar    1  UNL1        0.0191
     14 C          64.6255   86.8191   14.7023 C.ar    1  UNL1        0.0334
     15 C          64.2095   88.2443   14.9159 C.ar    1  UNL1        0.1927
     16 F          64.6931   89.3146   13.9828 F       1  UNL1       -0.1993
     17 C          63.9287   91.1098   16.3163 C.3     1  UNL1        0.2543
     18 O          62.8940   90.0245   16.2760 O.3     1  UNL1       -0.4546
     19 C          62.5537   85.2671    8.9146 C.3     1  UNL1        0.0575
     20 C          61.4863   86.2938    8.6766 C.ar    1  UNL1        0.0044
     21 C          60.2529   86.1065    7.8438 C.ar    1  UNL1        0.0966
     22 N          59.4693   87.3850    7.8821 N.ar    1  UNL1       -0.2273
     23 C          60.2184   88.3623    8.7386 C.ar    1  UNL1        0.1402
     24 N          59.9265   89.7793    9.1349 N.ar    1  UNL1       -0.3377
     25 C          60.8811   90.5217   10.0222 C.ar    1  UNL1        0.0691
     26 C          62.1278   89.8473   10.5132 C.ar    1  UNL1       -0.0047
     27 C          63.0825   90.5899   11.4005 C.3     1  UNL1        0.0326
     28 C          62.4197   88.4304   10.1169 C.ar    1  UNL1       -0.0001
     29 C          61.4650   87.6879    9.2296 C.ar    1  UNL1        0.0315
     30 H          59.1083   90.2219    8.8126 H       1  UNL1        0.1674
@<TRIPOS>BOND
     1    17    18    1
     2    18    10    1
     3    10    11   ar
     4    11    12   ar
     5    12    13   ar
     6    13     9    1
     7     9     7    1
     8     7     1    1
     9     1     2   ar
    10     2     3   ar
    11     3     4   ar
    12     4    19    1
    13    19    20    1
    14    20    21   ar
    15    21    22   ar
    16    22    23   ar
    17    23    24   ar
    18    24    25   ar
    19    25    26   ar
    20    26    27    1
    21    26    28   ar
    22    28    29   ar
    23     4     5   ar
    24     5     6   ar
    25    13    14   ar
    26    14    15   ar
    27    15    16    1
    28    15    10   ar
    29     6     1   ar
    30    29    20   ar
    31    29    23    1
    32     7     8    1
    33    24    30    1
@<TRIPOS>MOLECULE
*****
 30 33 0 0 0
SMALL
GASTEIGER

@<TRIPOS>ATOM
      1 C          63.8372   85.9172   15.7767 C.ar    1  UNL1        0.2172
      2 N          63.1602   86.6217   16.9148 N.ar    1  UNL1       -0.2126
      3 C          63.0758   88.1192   16.9259 C.ar    1  UNL1        0.0994
      4 C          63.6683   88.9123   15.7989 C.ar    1  UNL1        0.0207
      5 C          64.3453   88.2077   14.6608 C.ar    1  UNL1        0.0994
      6 N          64.4298   86.7102   14.6498 N.ar    1  UNL1       -0.2126
      7 N          63.9217   84.4196   15.7655 N.pl3   1  UNL1       -0.2990
      8 H          64.7323   83.9698   16.0971 H       1  UNL1        0.1500
      9 C          62.7713   83.6072   15.2491 C.3     1  UNL1        0.1181
     10 C          63.1358   81.4280   11.3290 C.ar    1  UNL1        0.2533
     11 N          62.4104   80.7906   12.4768 N.ar    1  UNL1       -0.2085
     12 C          62.2889   81.5170   13.7835 C.ar    1  UNL1        0.0995
     13 C          62.8928   82.8809   13.9424 C.ar    1  UNL1        0.0191
     14 C          63.6183   83.5183   12.7946 C.ar    1  UNL1        0.0334
     15 C          63.7398   82.7918   11.4879 C.ar    1  UNL1        0.1927
     16 F          64.4652   83.4292   10.3401 F       1  UNL1       -0.1993
     17 C          62.8082   79.2746    9.9128 C.3     1  UNL1        0.2543
     18 O          63.2574   80.7017   10.0222 O.3     1  UNL1       -0.4546
     19 C          63.5838   90.4099   15.8101 C.3     1  UNL1        0.0575
     20 C          64.5605   91.2222   15.0124 C.ar    1  UNL1        0.0044
     21 C          65.7575   91.9447   15.5558 C.ar    1  UNL1        0.0966
     22 N          66.4485   92.6235   14.4105 N.ar    1  UNL1       -0.2273
     23 C          65.6785   92.3206   13.1593 C.ar    1  UNL1        0.1402
     24 N          65.8892   92.7216   11.7294 N.ar    1  UNL1       -0.3377
     25 C          64.9330   92.2564   10.6714 C.ar    1  UNL1        0.0691
     26 C          63.7662   91.3903   11.0434 C.ar    1  UNL1       -0.0047
     27 C          62.8100   90.9251    9.9854 C.3     1  UNL1        0.0326
     28 C          63.5555   90.9894   12.4734 C.ar    1  UNL1       -0.0001
     29 C          64.5117   91.4545   13.5313 C.ar    1  UNL1        0.0315
     30 H          66.6550   93.2900   11.4852 H       1  UNL1        0.1674
@<TRIPOS>BOND
     1    17    18    1
     2    18    10    1
     3    10    11   ar
     4    11    12   ar
     5    12    13   ar
     6    13     9    1
     7     9     7    1
     8     7     1    1
     9     1     2   ar
    10     2     3   ar
    11     3     4   ar
    12     4    19    1
    13    19    20    1
    14    20    21   ar
    15    21    22   ar
    16    22    23   ar
    17    23    24   ar
    18    24    25   ar
    19    25    26   ar
    20    26    27    1
    21    26    28   ar
    22    28    29   ar
    23     4     5   ar
    24     5     6   ar
    25    13    14   ar
    26    14    15   ar
    27    15    16    1
    28    15    10   ar
    29     6     1   ar
    30    29    20   ar
    31    29    23    1
    32     7     8    1
    33    24    30    1
@<TRIPOS>MOLECULE
*****
 30 33 0 0 0
SMALL
GASTEIGER

@<TRIPOS>ATOM
      1 C          63.9578   85.6300   15.7367 C.ar    1  UNL1        0.2172
      2 N          63.1182   86.2489   16.8148 N.ar    1  UNL1       -0.2126
      3 C          62.9599   87.7391   16.8794 C.ar    1  UNL1        0.0994
      4 C          63.6411   88.6104   15.8660 C.ar    1  UNL1        0.0207
      5 C          64.4806   87.9915   14.7880 C.ar    1  UNL1        0.0994
      6 N          64.6389   86.5013   14.7234 N.ar    1  UNL1       -0.2126
      7 N          64.1161   84.1398   15.6720 N.pl3   1  UNL1       -0.2990
      8 H          64.7882   83.6914   16.2346 H       1  UNL1        0.1500
      9 C          63.2506   83.3328   14.7502 C.3     1  UNL1        0.1181
     10 C          63.2785   84.1708   10.3291 C.ar    1  UNL1        0.2533
     11 N          62.4960   85.0542   11.2549 N.ar    1  UNL1       -0.2085
     12 C          62.4867   84.7749   12.7287 C.ar    1  UNL1        0.0995
     13 C          63.2600   83.6121   13.2765 C.ar    1  UNL1        0.0191
     14 C          64.0425   82.7287   12.3506 C.ar    1  UNL1        0.0334
     15 C          64.0517   83.0080   10.8769 C.ar    1  UNL1        0.1927
     16 F          64.8342   82.1246    9.9511 F       1  UNL1       -0.1993
     17 C          62.5622   85.6461    8.3140 C.3     1  UNL1        0.2543
     18 O          63.2879   84.4500    8.8554 O.3     1  UNL1       -0.4546
     19 C          63.4827   90.1007   15.9307 C.3     1  UNL1        0.0575
     20 C          64.2786   90.9801   15.0124 C.ar    1  UNL1        0.0044
     21 C          65.4062   91.8837   15.4149 C.ar    1  UNL1        0.0966
     22 N          65.9111   92.5723   14.1816 N.ar    1  UNL1       -0.2273
     23 C          65.0955   92.0942   13.0170 C.ar    1  UNL1        0.1402
     24 N          65.1413   92.4277   11.5553 N.ar    1  UNL1       -0.3377
     25 C          64.1781   91.7772   10.6071 C.ar    1  UNL1        0.0691
     26 C          63.1692   90.7932   11.1206 C.ar    1  UNL1       -0.0047
     27 C          62.2060   90.1427   10.1723 C.3     1  UNL1        0.0326
     28 C          63.1234   90.4596   12.5823 C.ar    1  UNL1       -0.0001
     29 C          64.0866   91.1101   13.5304 C.ar    1  UNL1        0.0315
     30 H          65.8035   93.0736   11.2182 H       1  UNL1        0.1674
@<TRIPOS>BOND
     1    17    18    1
     2    18    10    1
     3    10    11   ar
     4    11    12   ar
     5    12    13   ar
     6    13     9    1
     7     9     7    1
     8     7     1    1
     9     1     2   ar
    10     2     3   ar
    11     3     4   ar
    12     4    19    1
    13    19    20    1
    14    20    21   ar
    15    21    22   ar
    16    22    23   ar
    17    23    24   ar
    18    24    25   ar
    19    25    26   ar
    20    26    27    1
    21    26    28   ar
    22    28    29   ar
    23     4     5   ar
    24     5     6   ar
    25    13    14   ar
    26    14    15   ar
    27    15    16    1
    28    15    10   ar
    29     6     1   ar
    30    29    20   ar
    31    29    23    1
    32     7     8    1
    33    24    30    1
@<TRIPOS>MOLECULE
*****
 30 33 0 0 0
SMALL
GASTEIGER

@<TRIPOS>ATOM
      1 C          63.8362   90.7329   12.4716 C.ar    1  UNL1        0.2172
      2 N          63.8644   89.3844   13.1280 N.ar    1  UNL1       -0.2126
      3 C          63.0973   88.2428   12.5295 C.ar    1  UNL1        0.0994
      4 C          62.3021   88.4496   11.2746 C.ar    1  UNL1        0.0207
      5 C          62.2739   89.7980   10.6181 C.ar    1  UNL1        0.0994
      6 N          63.0410   90.9396   11.2166 N.ar    1  UNL1       -0.2126
      7 N          64.6033   91.8745   13.0700 N.pl3   1  UNL1       -0.2990
      8 H          64.1481   92.5177   13.6602 H       1  UNL1        0.1500
      9 C          66.0640   92.0363   12.7694 C.3     1  UNL1        0.1181
     10 C          67.3952   94.8672    9.5347 C.ar    1  UNL1        0.2533
     11 N          66.6700   95.3915   10.7384 N.ar    1  UNL1       -0.2085
     12 C          66.2262   94.4478   11.8166 C.ar    1  UNL1        0.0995
     13 C          66.5078   92.9798   11.6911 C.ar    1  UNL1        0.0191
     14 C          67.2330   92.4555   10.4873 C.ar    1  UNL1        0.0334
     15 C          67.6768   93.3992    9.4091 C.ar    1  UNL1        0.1927
     16 F          68.4020   92.8748    8.2054 F       1  UNL1       -0.1993
     17 C          66.8955   96.8560    7.9394 C.3     1  UNL1        0.2543
     18 O          67.8390   95.8107    8.4564 O.3     1  UNL1       -0.4546
     19 C          61.5349   87.3079   10.6761 C.3     1  UNL1        0.0575
     20 C          62.2673   86.1321   10.1006 C.ar    1  UNL1        0.0044
     21 C          62.6241   85.9362    8.6568 C.ar    1  UNL1        0.0966
     22 N          63.3487   84.6288    8.5318 N.ar    1  UNL1       -0.2273
     23 C          63.4398   84.0167    9.8982 C.ar    1  UNL1        0.1402
     24 N          64.0450   82.7334   10.3848 N.ar    1  UNL1       -0.3377
     25 C          63.9819   82.3792   11.8410 C.ar    1  UNL1        0.0691
     26 C          63.3135   83.3084   12.8106 C.ar    1  UNL1       -0.0047
     27 C          63.2503   82.9541   14.2668 C.3     1  UNL1        0.0326
     28 C          62.7083   84.5916   12.3240 C.ar    1  UNL1       -0.0001
     29 C          62.7715   84.9458   10.8678 C.ar    1  UNL1        0.0315
     30 H          64.4837   82.1236    9.7485 H       1  UNL1        0.1674
@<TRIPOS>BOND
     1    17    18    1
     2    18    10    1
     3    10    11   ar
     4    11    12   ar
     5    12    13   ar
     6    13     9    1
     7     9     7    1
     8     7     1    1
     9     1     2   ar
    10     2     3   ar
    11     3     4   ar
    12     4    19    1
    13    19    20    1
    14    20    21   ar
    15    21    22   ar
    16    22    23   ar
    17    23    24   ar
    18    24    25   ar
    19    25    26   ar
    20    26    27    1
    21    26    28   ar
    22    28    29   ar
    23     4     5   ar
    24     5     6   ar
    25    13    14   ar
    26    14    15   ar
    27    15    16    1
    28    15    10   ar
    29     6     1   ar
    30    29    20   ar
    31    29    23    1
    32     7     8    1
    33    24    30    1
@<TRIPOS>MOLECULE
*****
 30 33 0 0 0
SMALL
GASTEIGER

@<TRIPOS>ATOM
      1 C          63.7366   82.7190   11.8220 C.ar    1  UNL1        0.2172
      2 N          62.6162   83.7017   11.9923 N.ar    1  UNL1       -0.2126
      3 C          62.2824   84.6575   10.8856 C.ar    1  UNL1        0.0994
      4 C          63.0689   84.6307    9.6086 C.ar    1  UNL1        0.0207
      5 C          64.1893   83.6479    9.4383 C.ar    1  UNL1        0.0994
      6 N          64.5231   82.6921   10.5451 N.ar    1  UNL1       -0.2126
      7 N          64.0704   81.7631   12.9287 N.pl3   1  UNL1       -0.2990
      8 H          64.6410   80.9813   12.7485 H       1  UNL1        0.1500
      9 C          63.5351   81.9983   14.3101 C.3     1  UNL1        0.1181
     10 C          63.4416   86.1646   16.0078 C.ar    1  UNL1        0.2533
     11 N          62.2671   85.2511   16.1972 N.ar    1  UNL1       -0.2085
     12 C          62.2983   83.8623   15.6313 C.ar    1  UNL1        0.0995
     13 C          63.5040   83.3871   14.8760 C.ar    1  UNL1        0.0191
     14 C          64.6785   84.3006   14.6866 C.ar    1  UNL1        0.0334
     15 C          64.6473   85.6894   15.2526 C.ar    1  UNL1        0.1927
     16 F          65.8219   86.6030   15.0632 F       1  UNL1       -0.1993
     17 C          63.5568   88.7373   15.6643 C.3     1  UNL1        0.2543
     18 O          63.4106   87.5534   16.5737 O.3     1  UNL1       -0.4546
     19 C          62.7350   85.5866    8.5018 C.3     1  UNL1        0.0575
     20 C          61.5557   86.5041    8.6335 C.ar    1  UNL1        0.0044
     21 C          60.2034   86.2955    8.0190 C.ar    1  UNL1        0.0966
     22 N          59.3336   87.4538    8.4086 N.ar    1  UNL1       -0.2273
     23 C          60.1483   88.3783    9.2639 C.ar    1  UNL1        0.1402
     24 N          59.8171   89.6787    9.9342 N.ar    1  UNL1       -0.3377
     25 C          60.8593   90.3921   10.7434 C.ar    1  UNL1        0.0691
     26 C          62.2326   89.8051   10.8824 C.ar    1  UNL1       -0.0047
     27 C          63.2748   90.5186   11.6917 C.3     1  UNL1        0.0326
     28 C          62.5639   88.5047   10.2122 C.ar    1  UNL1       -0.0001
     29 C          61.5217   87.7913    9.4030 C.ar    1  UNL1        0.0315
     30 H          58.9157   90.0639    9.8429 H       1  UNL1        0.1674
@<TRIPOS>BOND
     1    17    18    1
     2    18    10    1
     3    10    11   ar
     4    11    12   ar
     5    12    13   ar
     6    13     9    1
     7     9     7    1
     8     7     1    1
     9     1     2   ar
    10     2     3   ar
    11     3     4   ar
    12     4    19    1
    13    19    20    1
    14    20    21   ar
    15    21    22   ar
    16    22    23   ar
    17    23    24   ar
    18    24    25   ar
    19    25    26   ar
    20    26    27    1
    21    26    28   ar
    22    28    29   ar
    23     4     5   ar
    24     5     6   ar
    25    13    14   ar
    26    14    15   ar
    27    15    16    1
    28    15    10   ar
    29     6     1   ar
    30    29    20   ar
    31    29    23    1
    32     7     8    1
    33    24    30    1
@<TRIPOS>MOLECULE
*****
 30 33 0 0 0
SMALL
GASTEIGER

@<TRIPOS>ATOM
      1 C          60.8990   86.9037    8.9726 C.ar    1  UNL1        0.2172
      2 N          61.8380   86.3501    7.9422 N.ar    1  UNL1       -0.2126
      3 C          62.8034   85.2640    8.3138 C.ar    1  UNL1        0.0994
      4 C          62.8300   84.7315    9.7158 C.ar    1  UNL1        0.0207
      5 C          61.8910   85.2850   10.7463 C.ar    1  UNL1        0.0994
      6 N          60.9255   86.3711   10.3747 N.ar    1  UNL1       -0.2126
      7 N          59.9334   87.9898    8.6011 N.pl3   1  UNL1       -0.2990
      8 H          59.1028   87.7672    8.1219 H       1  UNL1        0.1500
      9 C          60.2334   89.4151    8.9597 C.3     1  UNL1        0.1181
     10 C          62.5823   90.3520   12.6819 C.ar    1  UNL1        0.2533
     11 N          61.2335   89.7047   12.7893 N.ar    1  UNL1       -0.2085
     12 C          60.4505   89.3924   11.5486 C.ar    1  UNL1        0.0995
     13 C          61.0164   89.7274   10.2004 C.ar    1  UNL1        0.0191
     14 C          62.3653   90.3748   10.0930 C.ar    1  UNL1        0.0334
     15 C          63.1482   90.6871   11.3337 C.ar    1  UNL1        0.1927
     16 F          64.4971   91.3344   11.2263 F       1  UNL1       -0.1993
     17 C          64.6044   89.8825   14.2442 C.3     1  UNL1        0.2543
     18 O          63.3653   90.6644   13.9225 O.3     1  UNL1       -0.4546
     19 C          63.7956   83.6453   10.0874 C.3     1  UNL1        0.0575
     20 C          63.5713   82.8351   11.3297 C.ar    1  UNL1        0.0044
     21 C          63.2105   81.3800   11.3802 C.ar    1  UNL1        0.0966
     22 N          63.0847   80.9835   12.8213 N.ar    1  UNL1       -0.2273
     23 C          63.3678   82.1934   13.6615 C.ar    1  UNL1        0.1402
     24 N          63.3905   82.4010   15.1469 N.ar    1  UNL1       -0.3377
     25 C          63.7141   83.7529   15.7103 C.ar    1  UNL1        0.0691
     26 C          64.0148   84.8973   14.7884 C.ar    1  UNL1       -0.0047
     27 C          64.3384   86.2493   15.3519 C.3     1  UNL1        0.0326
     28 C          63.9921   84.6898   13.3030 C.ar    1  UNL1       -0.0001
     29 C          63.6685   83.3378   12.7396 C.ar    1  UNL1        0.0315
     30 H          63.1931   81.6499   15.7519 H       1  UNL1        0.1674
@<TRIPOS>BOND
     1    17    18    1
     2    18    10    1
     3    10    11   ar
     4    11    12   ar
     5    12    13   ar
     6    13     9    1
     7     9     7    1
     8     7     1    1
     9     1     2   ar
    10     2     3   ar
    11     3     4   ar
    12     4    19    1
    13    19    20    1
    14    20    21   ar
    15    21    22   ar
    16    22    23   ar
    17    23    24   ar
    18    24    25   ar
    19    25    26   ar
    20    26    27    1
    21    26    28   ar
    22    28    29   ar
    23     4     5   ar
    24     5     6   ar
    25    13    14   ar
    26    14    15   ar
    27    15    16    1
    28    15    10   ar
    29     6     1   ar
    30    29    20   ar
    31    29    23    1
    32     7     8    1
    33    24    30    1
@<TRIPOS>MOLECULE
*****
 30 33 0 0 0
SMALL
GASTEIGER

@<TRIPOS>ATOM
      1 C          62.4126   89.8844   10.6494 C.ar    1  UNL1        0.2172
      2 N          61.6021   89.3769    9.4937 N.ar    1  UNL1       -0.2126
      3 C          61.3401   87.9071    9.3495 C.ar    1  UNL1        0.0994
      4 C          61.8886   86.9447   10.3610 C.ar    1  UNL1        0.0207
      5 C          62.6991   87.4522   11.5167 C.ar    1  UNL1        0.0994
      6 N          62.9610   88.9220   11.6608 N.ar    1  UNL1       -0.2126
      7 N          62.6746   91.3543   10.7936 N.pl3   1  UNL1       -0.2990
      8 H          61.9469   91.9598   11.0638 H       1  UNL1        0.1500
      9 C          64.0454   91.9016   10.5262 C.3     1  UNL1        0.1181
     10 C          66.6258   93.2769   13.9467 C.ar    1  UNL1        0.2533
     11 N          66.6541   94.0157   12.6416 N.ar    1  UNL1       -0.2085
     12 C          65.7939   93.5573   11.5015 C.ar    1  UNL1        0.0995
     13 C          64.9055   92.3600   11.6664 C.ar    1  UNL1        0.0191
     14 C          64.8772   91.6211   12.9715 C.ar    1  UNL1        0.0334
     15 C          65.7374   92.0796   14.1116 C.ar    1  UNL1        0.1927
     16 F          65.7091   91.3407   15.4167 F       1  UNL1       -0.1993
     17 C          68.7602   93.0101   15.4038 C.3     1  UNL1        0.2543
     18 O          67.4859   93.7352   15.0869 O.3     1  UNL1       -0.4546
     19 C          61.6265   85.4747   10.2168 C.3     1  UNL1        0.0575
     20 C          62.6985   84.4843   10.5631 C.ar    1  UNL1        0.0044
     21 C          63.6116   83.7975    9.5912 C.ar    1  UNL1        0.0966
     22 N          64.5230   82.8955   10.3696 N.ar    1  UNL1       -0.2273
     23 C          64.1731   83.0249   11.8225 C.ar    1  UNL1        0.1402
     24 N          64.7357   82.3755   13.0520 N.ar    1  UNL1       -0.3377
     25 C          64.1706   82.7080   14.4011 C.ar    1  UNL1        0.0691
     26 C          63.0430   83.6900   14.5207 C.ar    1  UNL1       -0.0047
     27 C          62.4779   84.0225   15.8699 C.3     1  UNL1        0.0326
     28 C          62.4805   84.3394   13.2912 C.ar    1  UNL1       -0.0001
     29 C          63.0455   84.0069   11.9421 C.ar    1  UNL1        0.0315
     30 H          65.4758   81.7310   12.9735 H       1  UNL1        0.1674
@<TRIPOS>BOND
     1    17    18    1
     2    18    10    1
     3    10    11   ar
     4    11    12   ar
     5    12    13   ar
     6    13     9    1
     7     9     7    1
     8     7     1    1
     9     1     2   ar
    10     2     3   ar
    11     3     4   ar
    12     4    19    1
    13    19    20    1
    14    20    21   ar
    15    21    22   ar
    16    22    23   ar
    17    23    24   ar
    18    24    25   ar
    19    25    26   ar
    20    26    27    1
    21    26    28   ar
    22    28    29   ar
    23     4     5   ar
    24     5     6   ar
    25    13    14   ar
    26    14    15   ar
    27    15    16    1
    28    15    10   ar
    29     6     1   ar
    30    29    20   ar
    31    29    23    1
    32     7     8    1
    33    24    30    1
@<TRIPOS>MOLECULE
*****
 30 33 0 0 0
SMALL
GASTEIGER

@<TRIPOS>ATOM
      1 C          61.9612   89.0471   11.2061 C.ar    1  UNL1        0.2172
      2 N          62.7624   89.4043   12.4228 N.ar    1  UNL1       -0.2126
      3 C          63.6906   90.5821   12.3903 C.ar    1  UNL1        0.0994
      4 C          63.8176   91.4028   11.1411 C.ar    1  UNL1        0.0207
      5 C          63.0164   91.0456    9.9244 C.ar    1  UNL1        0.0994
      6 N          62.0881   89.8678    9.9569 N.ar    1  UNL1       -0.2126
      7 N          61.0329   87.8693   11.2385 N.pl3   1  UNL1       -0.2990
      8 H          60.2234   87.8958   11.7982 H       1  UNL1        0.1500
      9 C          61.3380   86.6510   10.4182 C.3     1  UNL1        0.1181
     10 C          63.7647   83.2987   12.1852 C.ar    1  UNL1        0.2533
     11 N          63.0165   84.2377   13.0843 N.ar    1  UNL1       -0.2085
     12 C          62.2076   85.3552   12.4953 C.ar    1  UNL1        0.0995
     13 C          62.1469   85.5336   11.0071 C.ar    1  UNL1        0.0191
     14 C          62.8951   84.5945   10.1081 C.ar    1  UNL1        0.0334
     15 C          63.7040   83.4771   10.6971 C.ar    1  UNL1        0.1927
     16 F          64.4523   82.5380    9.7980 F       1  UNL1       -0.1993
     17 C          63.8910   81.0738   13.5209 C.3     1  UNL1        0.2543
     18 O          64.5737   82.1813   12.7742 O.3     1  UNL1       -0.4546
     19 C          64.7459   92.5807   11.1087 C.3     1  UNL1        0.0575
     20 C          66.2236   92.3755   11.2649 C.ar    1  UNL1        0.0044
     21 C          67.2081   92.1726   10.1516 C.ar    1  UNL1        0.0966
     22 N          68.5691   92.0090   10.7605 N.ar    1  UNL1       -0.2273
     23 C          68.4258   92.1108   12.2502 C.ar    1  UNL1        0.1402
     24 N          69.4280   92.0266   13.3630 N.ar    1  UNL1       -0.3377
     25 C          68.9806   92.1689   14.7876 C.ar    1  UNL1        0.0691
     26 C          67.5309   92.3955   15.0993 C.ar    1  UNL1       -0.0047
     27 C          67.0835   92.5378   16.5240 C.3     1  UNL1        0.0326
     28 C          66.5287   92.4797   13.9865 C.ar    1  UNL1       -0.0001
     29 C          66.9762   92.3374   12.5619 C.ar    1  UNL1        0.0315
     30 H          70.3795   91.8779   13.1584 H       1  UNL1        0.1674
@<TRIPOS>BOND
     1    17    18    1
     2    18    10    1
     3    10    11   ar
     4    11    12   ar
     5    12    13   ar
     6    13     9    1
     7     9     7    1
     8     7     1    1
     9     1     2   ar
    10     2     3   ar
    11     3     4   ar
    12     4    19    1
    13    19    20    1
    14    20    21   ar
    15    21    22   ar
    16    22    23   ar
    17    23    24   ar
    18    24    25   ar
    19    25    26   ar
    20    26    27    1
    21    26    28   ar
    22    28    29   ar
    23     4     5   ar
    24     5     6   ar
    25    13    14   ar
    26    14    15   ar
    27    15    16    1
    28    15    10   ar
    29     6     1   ar
    30    29    20   ar
    31    29    23    1
    32     7     8    1
    33    24    30    1
@<TRIPOS>MOLECULE
*****
 30 33 0 0 0
SMALL
GASTEIGER

@<TRIPOS>ATOM
      1 C          63.4869   83.5958   12.8631 C.ar    1  UNL1        0.2172
      2 N          64.2358   82.9425   11.7395 N.ar    1  UNL1       -0.2126
      3 C          64.0199   83.4013   10.3278 C.ar    1  UNL1        0.0994
      4 C          63.0553   84.5133   10.0397 C.ar    1  UNL1        0.0207
      5 C          62.3064   85.1665   11.1633 C.ar    1  UNL1        0.0994
      6 N          62.5223   84.7078   12.5750 N.ar    1  UNL1       -0.2126
      7 N          63.7027   83.1371   14.2748 N.pl3   1  UNL1       -0.2990
      8 H          63.2946   82.2975   14.5874 H       1  UNL1        0.1500
      9 C          64.5403   83.9576   15.2104 C.3     1  UNL1        0.1181
     10 C          63.3332   88.1792   16.1959 C.ar    1  UNL1        0.2533
     11 N          64.0619   87.8864   14.9179 N.ar    1  UNL1       -0.2085
     12 C          64.4642   86.4792   14.5895 C.ar    1  UNL1        0.0995
     13 C          64.1379   85.3648   15.5390 C.ar    1  UNL1        0.0191
     14 C          63.4092   85.6576   16.8170 C.ar    1  UNL1        0.0334
     15 C          63.0069   87.0648   17.1454 C.ar    1  UNL1        0.1927
     16 F          62.2782   87.3575   18.4234 F       1  UNL1       -0.1993
     17 C          63.7856   90.7348   16.0767 C.3     1  UNL1        0.2543
     18 O          62.9309   89.5863   16.5245 O.3     1  UNL1       -0.4546
     19 C          62.8395   84.9720    8.6278 C.3     1  UNL1        0.0575
     20 C          61.6510   85.8221    8.2889 C.ar    1  UNL1        0.0044
     21 C          60.5192   85.4347    7.3839 C.ar    1  UNL1        0.0966
     22 N          59.5545   86.5821    7.3311 N.ar    1  UNL1       -0.2273
     23 C          60.0900   87.6786    8.2034 C.ar    1  UNL1        0.1402
     24 N          59.5652   89.0440    8.5351 N.ar    1  UNL1       -0.3377
     25 C          60.3362   89.9398    9.4588 C.ar    1  UNL1        0.0691
     26 C          61.6320   89.4701   10.0507 C.ar    1  UNL1       -0.0047
     27 C          62.4029   90.3659   10.9744 C.3     1  UNL1        0.0326
     28 C          62.1568   88.1047    9.7190 C.ar    1  UNL1       -0.0001
     29 C          61.3858   87.2089    8.7953 C.ar    1  UNL1        0.0315
     30 H          58.7148   89.3523    8.1466 H       1  UNL1        0.1674
@<TRIPOS>BOND
     1    17    18    1
     2    18    10    1
     3    10    11   ar
     4    11    12   ar
     5    12    13   ar
     6    13     9    1
     7     9     7    1
     8     7     1    1
     9     1     2   ar
    10     2     3   ar
    11     3     4   ar
    12     4    19    1
    13    19    20    1
    14    20    21   ar
    15    21    22   ar
    16    22    23   ar
    17    23    24   ar
    18    24    25   ar
    19    25    26   ar
    20    26    27    1
    21    26    28   ar
    22    28    29   ar
    23     4     5   ar
    24     5     6   ar
    25    13    14   ar
    26    14    15   ar
    27    15    16    1
    28    15    10   ar
    29     6     1   ar
    30    29    20   ar
    31    29    23    1
    32     7     8    1
    33    24    30    1
