@<TRIPOS>MOLECULE
*****
 34 39 0 0 0
SMALL
GASTEIGER

@<TRIPOS>ATOM
      1 C          61.4728   92.7767    1.1656 C.ar    1  UNL1        0.1535
      2 C          62.3729   92.1207    2.1703 C.ar    1  UNL1        0.0379
      3 C          61.7938   91.5210    3.4173 C.ar    1  UNL1        0.0287
      4 C          60.3146   91.5773    3.6596 C.ar    1  UNL1        0.1578
      5 N          59.4145   92.2333    2.6549 N.ar    1  UNL1       -0.1420
      6 N          59.9935   92.8330    1.4079 N.ar    1  UNL1       -0.1328
      7 F          66.3683   96.8552   -6.3278 F       1  UNL1       -0.2044
      8 C          64.9473   96.3751   -6.3164 C.ar    1  UNL1        0.1390
      9 C          64.1053   96.4947   -7.5520 C.ar    1  UNL1        0.0295
     10 C          62.6842   96.0146   -7.5406 C.ar    1  UNL1        0.0054
     11 C          62.1051   95.4149   -6.2937 C.ar    1  UNL1        0.0367
     12 C          62.9471   95.2953   -5.0580 C.ar    1  UNL1        0.1363
     13 C          64.3682   95.7753   -5.0694 C.ar    1  UNL1        0.0393
     14 C          65.2101   95.6557   -3.8338 C.3     1  UNL1        0.0353
     15 C          64.6311   95.0560   -2.5867 C.3     1  UNL1        0.0450
     16 C          63.2100   94.5759   -2.5753 C.3     1  UNL1        0.1367
     17 C          64.0520   94.4563   -1.3398 C.3     1  UNL1        0.0615
     18 C          63.4729   93.8566   -0.0928 C.3     1  UNL1        0.0958
     19 N          62.0518   93.3765   -0.0814 N.pl3   1  UNL1       -0.2916
     20 C          61.2099   93.4961   -1.3170 C.3     1  UNL1        0.0958
     21 C          61.7890   94.0958   -2.5640 C.3     1  UNL1        0.0615
     22 O          62.3680   94.6956   -3.8110 O.3     1  UNL1       -0.4827
     23 C          59.7355   90.9776    4.9066 C.ar    1  UNL1        0.2691
     24 N          58.4414   91.3707    5.5553 N.ar    1  UNL1       -0.1055
     25 N          58.2549   90.5156    6.7735 N.ar    1  UNL1       -0.1110
     26 C          59.4338   89.5939    6.8776 C.ar    1  UNL1        0.2310
     27 O          60.3488   89.8795    5.7238 O.2     1  UNL1       -0.4178
     28 C          59.6582   88.5670    7.9477 C.3     1  UNL1        0.1148
     29 C          60.4643   88.9149    9.1639 C.ar    1  UNL1        0.0063
     30 C          61.6112   88.0416    9.5785 C.ar    1  UNL1       -0.0006
     31 C          62.4173   88.3895   10.7947 C.ar    1  UNL1        0.0204
     32 C          62.0765   89.6108   11.5962 C.ar    1  UNL1        0.0989
     33 N          60.9296   90.4841   11.1816 N.ar    1  UNL1       -0.2426
     34 C          60.1235   90.1362    9.9654 C.ar    1  UNL1        0.0951
@<TRIPOS>BOND
     1     7     8    1
     2     8     9   ar
     3     9    10   ar
     4    10    11   ar
     5    11    12   ar
     6    12    13   ar
     7    13    14    1
     8    14    15    1
     9    15    16    1
    10    16    17    1
    11    17    18    1
    12    18    19    1
    13    19     1    1
    14     1     2   ar
    15     2     3   ar
    16     3     4   ar
    17     4    23    1
    18    23    24   ar
    19    24    25   ar
    20    25    26   ar
    21    26    28    1
    22    28    29    1
    23    29    30   ar
    24    30    31   ar
    25    31    32   ar
    26    32    33   ar
    27    33    34   ar
    28    26    27   ar
    29     4     5   ar
    30     5     6   ar
    31    19    20    1
    32    20    21    1
    33    16    22    1
    34    13     8   ar
    35    21    16    1
    36    22    12    1
    37     6     1   ar
    38    27    23   ar
    39    34    29   ar
@<TRIPOS>MOLECULE
*****
 34 39 0 0 0
SMALL
GASTEIGER

@<TRIPOS>ATOM
      1 C          61.5137   92.4186    2.2340 C.ar    1  UNL1        0.1535
      2 C          60.0896   92.6051    2.6666 C.ar    1  UNL1        0.0379
      3 C          59.5860   91.9224    3.9038 C.ar    1  UNL1        0.0287
      4 C          60.5066   91.0533    4.7082 C.ar    1  UNL1        0.1578
      5 N          61.9307   90.8667    4.2755 N.ar    1  UNL1       -0.1420
      6 N          62.4342   91.5494    3.0384 N.ar    1  UNL1       -0.1328
      7 F          65.9903   96.8557   -5.3174 F       1  UNL1       -0.2044
      8 C          64.5353   96.5144   -5.1886 C.ar    1  UNL1        0.1390
      9 C          63.5840   96.8558   -6.2969 C.ar    1  UNL1        0.0295
     10 C          62.1290   96.5145   -6.1681 C.ar    1  UNL1        0.0054
     11 C          61.6254   95.8319   -4.9311 C.ar    1  UNL1        0.0367
     12 C          62.5768   95.4905   -3.8227 C.ar    1  UNL1        0.1363
     13 C          64.0317   95.8318   -3.9515 C.ar    1  UNL1        0.0393
     14 C          64.9831   95.4904   -2.8432 C.3     1  UNL1        0.0353
     15 C          64.4795   94.8077   -1.6060 C.3     1  UNL1        0.0450
     16 C          63.0245   94.4665   -1.4773 C.3     1  UNL1        0.1367
     17 C          63.9759   94.1251   -0.3690 C.3     1  UNL1        0.0615
     18 C          63.4723   93.4425    0.8681 C.3     1  UNL1        0.0958
     19 N          62.0173   93.1012    0.9968 N.pl3   1  UNL1       -0.2916
     20 C          61.0659   93.4426   -0.1114 C.3     1  UNL1        0.0958
     21 C          61.5695   94.1252   -1.3485 C.3     1  UNL1        0.0615
     22 O          62.0731   94.8079   -2.5856 O.3     1  UNL1       -0.4827
     23 C          60.0031   90.3706    5.9453 C.ar    1  UNL1        0.2691
     24 N          58.6701   89.7008    6.1022 N.ar    1  UNL1       -0.1055
     25 N          58.5873   89.1542    7.4966 N.ar    1  UNL1       -0.1110
     26 C          59.8691   89.4861    8.2014 C.ar    1  UNL1        0.2310
     27 O          60.7441   90.2379    7.2427 O.2     1  UNL1       -0.4178
     28 C          60.2152   89.1289    9.6166 C.3     1  UNL1        0.1148
     29 C          60.9457   87.8522    9.9107 C.ar    1  UNL1        0.0063
     30 C          61.5905   87.0832    8.7959 C.ar    1  UNL1       -0.0006
     31 C          62.3209   85.8065    9.0900 C.ar    1  UNL1        0.0204
     32 C          62.4065   85.2988   10.4989 C.ar    1  UNL1        0.0989
     33 N          61.7617   86.0678   11.6137 N.ar    1  UNL1       -0.2426
     34 C          61.0312   87.3445   11.3196 C.ar    1  UNL1        0.0951
@<TRIPOS>BOND
     1     7     8    1
     2     8     9   ar
     3     9    10   ar
     4    10    11   ar
     5    11    12   ar
     6    12    13   ar
     7    13    14    1
     8    14    15    1
     9    15    16    1
    10    16    17    1
    11    17    18    1
    12    18    19    1
    13    19     1    1
    14     1     2   ar
    15     2     3   ar
    16     3     4   ar
    17     4    23    1
    18    23    24   ar
    19    24    25   ar
    20    25    26   ar
    21    26    28    1
    22    28    29    1
    23    29    30   ar
    24    30    31   ar
    25    31    32   ar
    26    32    33   ar
    27    33    34   ar
    28    26    27   ar
    29     4     5   ar
    30     5     6   ar
    31    19    20    1
    32    20    21    1
    33    16    22    1
    34    13     8   ar
    35    21    16    1
    36    22    12    1
    37     6     1   ar
    38    27    23   ar
    39    34    29   ar
@<TRIPOS>MOLECULE
*****
 34 39 0 0 0
SMALL
GASTEIGER

@<TRIPOS>ATOM
      1 C          60.7679   87.9472    8.7388 C.ar    1  UNL1        0.1535
      2 C          59.9691   87.4042    7.5913 C.ar    1  UNL1        0.0379
      3 C          59.4101   88.3373    6.5583 C.ar    1  UNL1        0.0287
      4 C          59.6501   89.8135    6.6730 C.ar    1  UNL1        0.1578
      5 N          60.4491   90.3566    7.8205 N.ar    1  UNL1       -0.1420
      6 N          61.0079   89.4235    8.8534 N.ar    1  UNL1       -0.1328
      7 F          64.8266   82.8985   16.1407 F       1  UNL1       -0.2044
      8 C          64.1215   82.3486   14.9363 C.ar    1  UNL1        0.1390
      9 C          63.9754   80.8656   14.7648 C.ar    1  UNL1        0.0295
     10 C          63.2704   80.3157   13.5604 C.ar    1  UNL1        0.0054
     11 C          62.7115   81.2488   12.5275 C.ar    1  UNL1        0.0367
     12 C          62.8576   82.7319   12.6990 C.ar    1  UNL1        0.1363
     13 C          63.5626   83.2817   13.9034 C.ar    1  UNL1        0.0393
     14 C          63.7087   84.7647   14.0748 C.3     1  UNL1        0.0353
     15 C          63.1498   85.6979   13.0419 C.3     1  UNL1        0.0450
     16 C          62.4447   85.1480   11.8375 C.3     1  UNL1        0.1367
     17 C          62.5909   86.6309   12.0090 C.3     1  UNL1        0.0615
     18 C          62.0319   87.5640   10.9761 C.3     1  UNL1        0.0958
     19 N          61.3269   87.0141    9.7717 N.pl3   1  UNL1       -0.2916
     20 C          61.1808   85.5311    9.6002 C.3     1  UNL1        0.0958
     21 C          61.7397   84.5981   10.6331 C.3     1  UNL1        0.0615
     22 O          62.2986   83.6649   11.6661 O.3     1  UNL1       -0.4827
     23 C          59.0912   90.7467    5.6401 C.ar    1  UNL1        0.2691
     24 N          57.6577   91.1714    5.5191 N.ar    1  UNL1       -0.1055
     25 N          57.5482   92.1062    4.3511 N.ar    1  UNL1       -0.1110
     26 C          58.9141   92.2592    3.7502 C.ar    1  UNL1        0.2310
     27 O          59.8677   91.4190    4.5469 O.2     1  UNL1       -0.4178
     28 C          59.2648   93.1040    2.5615 C.3     1  UNL1        0.1148
     29 C          60.6983   93.4448    2.2802 C.ar    1  UNL1        0.0063
     30 C          61.7689   92.4155    2.4899 C.ar    1  UNL1       -0.0006
     31 C          63.2024   92.7563    2.2087 C.ar    1  UNL1        0.0204
     32 C          63.5651   94.1264    1.7176 C.ar    1  UNL1        0.0989
     33 N          62.4944   95.1558    1.5079 N.ar    1  UNL1       -0.2426
     34 C          61.0610   94.8150    1.7892 C.ar    1  UNL1        0.0951
@<TRIPOS>BOND
     1     7     8    1
     2     8     9   ar
     3     9    10   ar
     4    10    11   ar
     5    11    12   ar
     6    12    13   ar
     7    13    14    1
     8    14    15    1
     9    15    16    1
    10    16    17    1
    11    17    18    1
    12    18    19    1
    13    19     1    1
    14     1     2   ar
    15     2     3   ar
    16     3     4   ar
    17     4    23    1
    18    23    24   ar
    19    24    25   ar
    20    25    26   ar
    21    26    28    1
    22    28    29    1
    23    29    30   ar
    24    30    31   ar
    25    31    32   ar
    26    32    33   ar
    27    33    34   ar
    28    26    27   ar
    29     4     5   ar
    30     5     6   ar
    31    19    20    1
    32    20    21    1
    33    16    22    1
    34    13     8   ar
    35    21    16    1
    36    22    12    1
    37     6     1   ar
    38    27    23   ar
    39    34    29   ar
@<TRIPOS>MOLECULE
*****
 34 39 0 0 0
SMALL
GASTEIGER

@<TRIPOS>ATOM
      1 C          60.2185   91.9735    3.3160 C.ar    1  UNL1        0.1535
      2 C          58.9045   91.9293    4.0382 C.ar    1  UNL1        0.0379
      3 C          58.7842   91.1783    5.3311 C.ar    1  UNL1        0.0287
      4 C          59.9779   90.4716    5.9018 C.ar    1  UNL1        0.1578
      5 N          61.2919   90.5159    5.1796 N.ar    1  UNL1       -0.1420
      6 N          61.4122   91.2668    3.8867 N.ar    1  UNL1       -0.1328
      7 F          59.7069   96.8535   -5.2090 F       1  UNL1       -0.2044
      8 C          60.9401   96.4793   -4.4415 C.ar    1  UNL1        0.1390
      9 C          62.2936   96.8560   -4.9669 C.ar    1  UNL1        0.0295
     10 C          63.5269   96.4818   -4.1994 C.ar    1  UNL1        0.0054
     11 C          63.4066   95.7308   -2.9065 C.ar    1  UNL1        0.0367
     12 C          62.0531   95.3541   -2.3810 C.ar    1  UNL1        0.1363
     13 C          60.8198   95.7283   -3.1485 C.ar    1  UNL1        0.0393
     14 C          59.4663   95.3516   -2.6232 C.3     1  UNL1        0.0353
     15 C          59.3460   94.6006   -1.3302 C.3     1  UNL1        0.0450
     16 C          60.5793   94.2264   -0.5627 C.3     1  UNL1        0.1367
     17 C          59.2258   93.8496   -0.0373 C.3     1  UNL1        0.0615
     18 C          59.1055   93.0987    1.2556 C.3     1  UNL1        0.0958
     19 N          60.3388   92.7245    2.0231 N.pl3   1  UNL1       -0.2916
     20 C          61.6923   93.1012    1.4977 C.3     1  UNL1        0.0958
     21 C          61.8125   93.8522    0.2048 C.3     1  UNL1        0.0615
     22 O          61.9328   94.6031   -1.0881 O.3     1  UNL1       -0.4827
     23 C          59.8577   89.7207    7.1947 C.ar    1  UNL1        0.2691
     24 N          59.1257   88.4273    7.3984 N.ar    1  UNL1       -0.1055
     25 N          59.2639   88.0385    8.8405 N.ar    1  UNL1       -0.1110
     26 C          60.0813   89.0916    9.5281 C.ar    1  UNL1        0.2310
     27 O          60.4483   90.1312    8.5110 O.2     1  UNL1       -0.4178
     28 C          60.4645   89.1031   10.9783 C.3     1  UNL1        0.1148
     29 C          61.6942   89.8378   11.4234 C.ar    1  UNL1        0.0063
     30 C          62.4969   90.6263   10.4314 C.ar    1  UNL1       -0.0006
     31 C          63.7266   91.3610   10.8765 C.ar    1  UNL1        0.0204
     32 C          64.1535   91.3073   12.3134 C.ar    1  UNL1        0.0989
     33 N          63.3508   90.5188   13.3054 N.ar    1  UNL1       -0.2426
     34 C          62.1211   89.7841   12.8603 C.ar    1  UNL1        0.0951
@<TRIPOS>BOND
     1     7     8    1
     2     8     9   ar
     3     9    10   ar
     4    10    11   ar
     5    11    12   ar
     6    12    13   ar
     7    13    14    1
     8    14    15    1
     9    15    16    1
    10    16    17    1
    11    17    18    1
    12    18    19    1
    13    19     1    1
    14     1     2   ar
    15     2     3   ar
    16     3     4   ar
    17     4    23    1
    18    23    24   ar
    19    24    25   ar
    20    25    26   ar
    21    26    28    1
    22    28    29    1
    23    29    30   ar
    24    30    31   ar
    25    31    32   ar
    26    32    33   ar
    27    33    34   ar
    28    26    27   ar
    29     4     5   ar
    30     5     6   ar
    31    19    20    1
    32    20    21    1
    33    16    22    1
    34    13     8   ar
    35    21    16    1
    36    22    12    1
    37     6     1   ar
    38    27    23   ar
    39    34    29   ar
@<TRIPOS>MOLECULE
*****
 34 39 0 0 0
SMALL
GASTEIGER

@<TRIPOS>ATOM
      1 C          60.7293   92.0922    3.1236 C.ar    1  UNL1        0.1535
      2 C          59.3361   92.0570    3.6783 C.ar    1  UNL1        0.0379
      3 C          59.0564   91.3248    4.9573 C.ar    1  UNL1        0.0287
      4 C          60.1699   90.6279    5.6815 C.ar    1  UNL1        0.1578
      5 N          61.5631   90.6631    5.1267 N.ar    1  UNL1       -0.1420
      6 N          61.8428   91.3953    3.8478 N.ar    1  UNL1       -0.1328
      7 F          61.2789   96.8467   -5.4697 F       1  UNL1       -0.2044
      8 C          62.4076   96.4852   -4.5502 C.ar    1  UNL1        0.1390
      9 C          63.8159   96.8558   -4.9096 C.ar    1  UNL1        0.0295
     10 C          64.9445   96.4943   -3.9901 C.ar    1  UNL1        0.0054
     11 C          64.6648   95.7621   -2.7112 C.ar    1  UNL1        0.0367
     12 C          63.2565   95.3915   -2.3517 C.ar    1  UNL1        0.1363
     13 C          62.1278   95.7530   -3.2712 C.ar    1  UNL1        0.0393
     14 C          60.7195   95.3824   -2.9117 C.3     1  UNL1        0.0353
     15 C          60.4398   94.6502   -1.6328 C.3     1  UNL1        0.0450
     16 C          61.5684   94.2887   -0.7133 C.3     1  UNL1        0.1367
     17 C          60.1601   93.9181   -0.3538 C.3     1  UNL1        0.0615
     18 C          59.8804   93.1859    0.9251 C.3     1  UNL1        0.0958
     19 N          61.0090   92.8244    1.8446 N.pl3   1  UNL1       -0.2916
     20 C          62.4173   93.1950    1.4852 C.3     1  UNL1        0.0958
     21 C          62.6970   93.9272    0.2062 C.3     1  UNL1        0.0615
     22 O          62.9768   94.6593   -1.0727 O.3     1  UNL1       -0.4827
     23 C          59.8902   89.8957    6.9604 C.ar    1  UNL1        0.2691
     24 N          58.8931   88.7902    7.1435 N.ar    1  UNL1       -0.1055
     25 N          58.9451   88.3517    8.5771 N.ar    1  UNL1       -0.1110
     26 C          59.9744   89.1864    9.2799 C.ar    1  UNL1        0.2310
     27 O          60.5585   90.1406    8.2808 O.2     1  UNL1       -0.4178
     28 C          60.3532   89.0847   10.7278 C.3     1  UNL1        0.1148
     29 C          61.2562   87.9801   11.1910 C.ar    1  UNL1        0.0063
     30 C          61.0160   86.5726   10.7314 C.ar    1  UNL1       -0.0006
     31 C          61.9190   85.4681   11.1946 C.ar    1  UNL1        0.0204
     32 C          63.0621   85.7711   12.1174 C.ar    1  UNL1        0.0989
     33 N          63.3023   87.1786   12.5769 N.ar    1  UNL1       -0.2426
     34 C          62.3993   88.2831   12.1137 C.ar    1  UNL1        0.0951
@<TRIPOS>BOND
     1     7     8    1
     2     8     9   ar
     3     9    10   ar
     4    10    11   ar
     5    11    12   ar
     6    12    13   ar
     7    13    14    1
     8    14    15    1
     9    15    16    1
    10    16    17    1
    11    17    18    1
    12    18    19    1
    13    19     1    1
    14     1     2   ar
    15     2     3   ar
    16     3     4   ar
    17     4    23    1
    18    23    24   ar
    19    24    25   ar
    20    25    26   ar
    21    26    28    1
    22    28    29    1
    23    29    30   ar
    24    30    31   ar
    25    31    32   ar
    26    32    33   ar
    27    33    34   ar
    28    26    27   ar
    29     4     5   ar
    30     5     6   ar
    31    19    20    1
    32    20    21    1
    33    16    22    1
    34    13     8   ar
    35    21    16    1
    36    22    12    1
    37     6     1   ar
    38    27    23   ar
    39    34    29   ar
@<TRIPOS>MOLECULE
*****
 34 39 0 0 0
SMALL
GASTEIGER

@<TRIPOS>ATOM
      1 C          60.0607   92.0000    3.3226 C.ar    1  UNL1        0.1535
      2 C          61.2939   91.4052    3.9353 C.ar    1  UNL1        0.0379
      3 C          61.2033   90.6682    5.2386 C.ar    1  UNL1        0.0287
      4 C          59.8793   90.5259    5.9292 C.ar    1  UNL1        0.1578
      5 N          58.6461   91.1207    5.3165 N.ar    1  UNL1       -0.1420
      6 N          58.7368   91.8577    4.0133 N.ar    1  UNL1       -0.1328
      7 F          61.9413   96.8556   -5.0223 F       1  UNL1       -0.2044
      8 C          60.6047   96.4225   -4.4970 C.ar    1  UNL1        0.1390
      9 C          59.3588   96.7264   -5.2750 C.ar    1  UNL1        0.0295
     10 C          58.0222   96.2933   -4.7497 C.ar    1  UNL1        0.0054
     11 C          57.9315   95.5562   -3.4465 C.ar    1  UNL1        0.0367
     12 C          59.1774   95.2522   -2.6684 C.ar    1  UNL1        0.1363
     13 C          60.5140   95.6854   -3.1937 C.ar    1  UNL1        0.0393
     14 C          61.7600   95.3815   -2.4157 C.3     1  UNL1        0.0353
     15 C          61.6693   94.6444   -1.1124 C.3     1  UNL1        0.0450
     16 C          60.3327   94.2112   -0.5871 C.3     1  UNL1        0.1367
     17 C          61.5786   93.9073    0.1908 C.3     1  UNL1        0.0615
     18 C          61.4879   93.1703    1.4941 C.3     1  UNL1        0.0958
     19 N          60.1513   92.7371    2.0193 N.pl3   1  UNL1       -0.2916
     20 C          58.9054   93.0410    1.2414 C.3     1  UNL1        0.0958
     21 C          58.9961   93.7781   -0.0619 C.3     1  UNL1        0.0615
     22 O          59.0868   94.5152   -1.3652 O.3     1  UNL1       -0.4827
     23 C          59.7886   89.7888    7.2324 C.ar    1  UNL1        0.2691
     24 N          59.0575   88.5003    7.4677 N.ar    1  UNL1       -0.1055
     25 N          59.2302   88.1260    8.9099 N.ar    1  UNL1       -0.1110
     26 C          60.0680   89.1832    9.5660 C.ar    1  UNL1        0.2310
     27 O          60.4131   90.2109    8.5293 O.2     1  UNL1       -0.4178
     28 C          60.4871   89.2083   11.0061 C.3     1  UNL1        0.1148
     29 C          61.7470   89.9160   11.4084 C.ar    1  UNL1        0.0063
     30 C          62.5644   90.6364   10.3774 C.ar    1  UNL1       -0.0006
     31 C          63.8243   91.3441   10.7796 C.ar    1  UNL1        0.0204
     32 C          64.2667   91.3315   12.2128 C.ar    1  UNL1        0.0989
     33 N          63.4493   90.6112   13.2438 N.ar    1  UNL1       -0.2426
     34 C          62.1894   89.9035   12.8416 C.ar    1  UNL1        0.0951
@<TRIPOS>BOND
     1     7     8    1
     2     8     9   ar
     3     9    10   ar
     4    10    11   ar
     5    11    12   ar
     6    12    13   ar
     7    13    14    1
     8    14    15    1
     9    15    16    1
    10    16    17    1
    11    17    18    1
    12    18    19    1
    13    19     1    1
    14     1     2   ar
    15     2     3   ar
    16     3     4   ar
    17     4    23    1
    18    23    24   ar
    19    24    25   ar
    20    25    26   ar
    21    26    28    1
    22    28    29    1
    23    29    30   ar
    24    30    31   ar
    25    31    32   ar
    26    32    33   ar
    27    33    34   ar
    28    26    27   ar
    29     4     5   ar
    30     5     6   ar
    31    19    20    1
    32    20    21    1
    33    16    22    1
    34    13     8   ar
    35    21    16    1
    36    22    12    1
    37     6     1   ar
    38    27    23   ar
    39    34    29   ar
@<TRIPOS>MOLECULE
*****
 34 39 0 0 0
SMALL
GASTEIGER

@<TRIPOS>ATOM
      1 C          60.2497   91.9826    3.2949 C.ar    1  UNL1        0.1535
      2 C          58.9193   91.8134    3.9668 C.ar    1  UNL1        0.0379
      3 C          58.8238   91.0657    5.2637 C.ar    1  UNL1        0.0287
      4 C          60.0586   90.4872    5.8886 C.ar    1  UNL1        0.1578
      5 N          61.3890   90.6564    5.2167 N.ar    1  UNL1       -0.1420
      6 N          61.4845   91.4041    3.9198 N.ar    1  UNL1       -0.1328
      7 F          62.1661   96.8520   -5.0338 F       1  UNL1       -0.2044
      8 C          60.8232   96.4686   -4.4864 C.ar    1  UNL1        0.1390
      9 C          59.5759   96.8328   -5.2358 C.ar    1  UNL1        0.0295
     10 C          58.2331   96.4494   -4.6883 C.ar    1  UNL1        0.0054
     11 C          58.1375   95.7018   -3.3915 C.ar    1  UNL1        0.0367
     12 C          59.3848   95.3375   -2.6420 C.ar    1  UNL1        0.1363
     13 C          60.7276   95.7209   -3.1895 C.ar    1  UNL1        0.0393
     14 C          61.9749   95.3567   -2.4401 C.3     1  UNL1        0.0353
     15 C          61.8793   94.6090   -1.1432 C.3     1  UNL1        0.0450
     16 C          60.5365   94.2256   -0.5957 C.3     1  UNL1        0.1367
     17 C          61.7837   93.8613    0.1537 C.3     1  UNL1        0.0615
     18 C          61.6881   93.1137    1.4505 C.3     1  UNL1        0.0958
     19 N          60.3452   92.7303    1.9980 N.pl3   1  UNL1       -0.2916
     20 C          59.0980   93.0945    1.2486 C.3     1  UNL1        0.0958
     21 C          59.1936   93.8422   -0.0482 C.3     1  UNL1        0.0615
     22 O          59.2892   94.5898   -1.3452 O.3     1  UNL1       -0.4827
     23 C          59.9631   89.7396    7.1855 C.ar    1  UNL1        0.2691
     24 N          59.0105   88.6218    7.4907 N.ar    1  UNL1       -0.1055
     25 N          59.2621   88.1698    8.8987 N.ar    1  UNL1       -0.1110
     26 C          60.3702   89.0083    9.4636 C.ar    1  UNL1        0.2310
     27 O          60.8035   89.9784    8.4048 O.2     1  UNL1       -0.4178
     28 C          60.9443   88.8962   10.8449 C.3     1  UNL1        0.1148
     29 C          61.6130   87.6254   11.2783 C.ar    1  UNL1        0.0063
     30 C          61.2759   86.3311   10.5992 C.ar    1  UNL1       -0.0006
     31 C          61.9446   85.0603   11.0326 C.ar    1  UNL1        0.0204
     32 C          62.9503   85.0838   12.1452 C.ar    1  UNL1        0.0989
     33 N          63.2874   86.3780   12.8244 N.ar    1  UNL1       -0.2426
     34 C          62.6187   87.6488   12.3910 C.ar    1  UNL1        0.0951
@<TRIPOS>BOND
     1     7     8    1
     2     8     9   ar
     3     9    10   ar
     4    10    11   ar
     5    11    12   ar
     6    12    13   ar
     7    13    14    1
     8    14    15    1
     9    15    16    1
    10    16    17    1
    11    17    18    1
    12    18    19    1
    13    19     1    1
    14     1     2   ar
    15     2     3   ar
    16     3     4   ar
    17     4    23    1
    18    23    24   ar
    19    24    25   ar
    20    25    26   ar
    21    26    28    1
    22    28    29    1
    23    29    30   ar
    24    30    31   ar
    25    31    32   ar
    26    32    33   ar
    27    33    34   ar
    28    26    27   ar
    29     4     5   ar
    30     5     6   ar
    31    19    20    1
    32    20    21    1
    33    16    22    1
    34    13     8   ar
    35    21    16    1
    36    22    12    1
    37     6     1   ar
    38    27    23   ar
    39    34    29   ar
@<TRIPOS>MOLECULE
*****
 34 39 0 0 0
SMALL
GASTEIGER

@<TRIPOS>ATOM
      1 C          60.6334   87.8615    8.5109 C.ar    1  UNL1        0.1535
      2 C          59.8666   87.3535    7.3260 C.ar    1  UNL1        0.0379
      3 C          59.3163   88.3192    6.3187 C.ar    1  UNL1        0.0287
      4 C          59.5327   89.7928    6.4963 C.ar    1  UNL1        0.1578
      5 N          60.2996   90.3008    7.6812 N.ar    1  UNL1       -0.1420
      6 N          60.8499   89.3351    8.6885 N.ar    1  UNL1       -0.1328
      7 F          64.3320   80.6848   14.1293 F       1  UNL1       -0.2044
      8 C          63.9355   82.0675   14.5547 C.ar    1  UNL1        0.1390
      9 C          64.0893   82.4846   15.9873 C.ar    1  UNL1        0.0295
     10 C          63.6927   83.8673   16.4126 C.ar    1  UNL1        0.0054
     11 C          63.1424   84.8329   15.4053 C.ar    1  UNL1        0.0367
     12 C          62.9886   84.4159   13.9727 C.ar    1  UNL1        0.1363
     13 C          63.3851   83.0332   13.5473 C.ar    1  UNL1        0.0393
     14 C          63.2313   82.6162   12.1147 C.3     1  UNL1        0.0353
     15 C          62.6810   83.5818   11.1074 C.3     1  UNL1        0.0450
     16 C          62.2844   84.9645   11.5327 C.3     1  UNL1        0.1367
     17 C          62.1306   84.5475   10.1001 C.3     1  UNL1        0.0615
     18 C          61.5803   85.5131    9.0929 C.3     1  UNL1        0.0958
     19 N          61.1838   86.8958    9.5182 N.pl3   1  UNL1       -0.2916
     20 C          61.3375   87.3129   10.9508 C.3     1  UNL1        0.0958
     21 C          61.8879   86.3472   11.9581 C.3     1  UNL1        0.0615
     22 O          62.4382   85.3816   12.9654 O.3     1  UNL1       -0.4827
     23 C          58.9824   90.7585    5.4890 C.ar    1  UNL1        0.2691
     24 N          57.5543   91.2053    5.3846 N.ar    1  UNL1       -0.1055
     25 N          57.4528   92.1699    4.2404 N.ar    1  UNL1       -0.1110
     26 C          58.8183   92.3191    3.6375 C.ar    1  UNL1        0.2310
     27 O          59.7636   91.4468    4.4092 O.2     1  UNL1       -0.4178
     28 C          59.1756   93.1881    2.4682 C.3     1  UNL1        0.1148
     29 C          60.6098   93.5416    2.2071 C.ar    1  UNL1        0.0063
     30 C          61.6863   92.5210    2.4294 C.ar    1  UNL1       -0.0006
     31 C          63.1204   92.8745    2.1683 C.ar    1  UNL1        0.0204
     32 C          63.4781   94.2488    1.6850 C.ar    1  UNL1        0.0989
     33 N          62.4016   95.2694    1.4627 N.ar    1  UNL1       -0.2426
     34 C          60.9675   94.9159    1.7238 C.ar    1  UNL1        0.0951
@<TRIPOS>BOND
     1     7     8    1
     2     8     9   ar
     3     9    10   ar
     4    10    11   ar
     5    11    12   ar
     6    12    13   ar
     7    13    14    1
     8    14    15    1
     9    15    16    1
    10    16    17    1
    11    17    18    1
    12    18    19    1
    13    19     1    1
    14     1     2   ar
    15     2     3   ar
    16     3     4   ar
    17     4    23    1
    18    23    24   ar
    19    24    25   ar
    20    25    26   ar
    21    26    28    1
    22    28    29    1
    23    29    30   ar
    24    30    31   ar
    25    31    32   ar
    26    32    33   ar
    27    33    34   ar
    28    26    27   ar
    29     4     5   ar
    30     5     6   ar
    31    19    20    1
    32    20    21    1
    33    16    22    1
    34    13     8   ar
    35    21    16    1
    36    22    12    1
    37     6     1   ar
    38    27    23   ar
    39    34    29   ar
