@<TRIPOS>MOLECULE
*****
 56 61 0 0 0
SMALL
GASTEIGER

@<TRIPOS>ATOM
      1 N          61.2280   85.8183    8.4494 N.3     1  UNL1       -0.1862
      2 C          62.0763   84.6717    8.9138 C.3     1  UNL1        0.1775
      3 C          62.8470   84.7800   10.1961 C.2     1  UNL1        0.2452
      4 O          63.6953   83.6334   10.6604 O.2     1  UNL1       -0.2732
      5 N          62.7693   86.0349   11.0141 N.am    1  UNL1       -0.2541
      6 C          63.5400   86.1433   12.2964 C.3     1  UNL1        0.1577
      7 C          63.4623   87.3982   13.1144 C.2     1  UNL1        0.2445
      8 O          64.2330   87.5065   14.3967 O.2     1  UNL1       -0.2731
      9 N          62.6140   88.5448   12.6501 N.am    1  UNL1       -0.2705
     10 C          61.8433   88.4365   11.3677 C.3     1  UNL1        0.1359
     11 C          61.9210   87.1815   10.5497 C.3     1  UNL1        0.1908
     12 N          61.1504   87.0732    9.2674 N.am    1  UNL1       -0.1863
     13 C          60.3020   88.2199    8.8031 C.2     1  UNL1        0.3191
     14 O          60.2244   89.4748    9.6211 O.2     1  UNL1       -0.2512
     15 N          59.5314   88.1116    7.5208 N.am    1  UNL1       -0.2836
     16 H          59.5824   87.2879    6.9839 H       1  UNL1        0.1513
     17 C          60.4574   85.7100    7.1671 C.3     1  UNL1        0.1188
     18 C          61.9424   84.4626    5.4383 C.2     1  UNL1       -0.0034
     19 C          60.6847   84.5437    6.2517 C.2     1  UNL1       -0.0071
     20 C          64.3883   84.9967   12.7607 C.3     1  UNL1        0.0556
     21 C          63.7415   83.7298   13.2369 C.ar    1  UNL1       -0.0198
     22 C          62.4841   83.7903   14.0525 C.ar    1  UNL1       -0.0011
     23 C          61.8373   82.5234   14.5286 C.ar    1  UNL1        0.0363
     24 C          62.4480   81.1961   14.1893 C.ar    1  UNL1        0.1337
     25 O          61.8012   79.9292   14.6655 O.3     1  UNL1       -0.5055
     26 C          63.7055   81.1356   13.3737 C.ar    1  UNL1        0.0363
     27 C          64.3523   82.4024   12.8975 C.ar    1  UNL1       -0.0011
     28 H          61.0157   79.9670   15.1749 H       1  UNL1        0.2922
     29 C          62.5363   89.7997   13.4680 C.3     1  UNL1        0.1217
     30 C          63.7241   90.7116   13.5573 C.ar    1  UNL1        0.0135
     31 C          64.4931   90.8180   14.8408 C.ar    1  UNL1       -0.0012
     32 C          65.6808   91.7297   14.9301 C.ar    1  UNL1       -0.0002
     33 C          66.0995   92.5351   13.7359 C.ar    1  UNL1        0.0016
     34 C          65.3305   92.4286   12.4524 C.ar    1  UNL1        0.0214
     35 C          65.5052   93.0942   11.1196 C.ar    1  UNL1        0.0719
     36 C          64.4254   92.5937   10.2065 C.ar    1  UNL1        0.0805
     37 N          63.5835   91.6189   10.9751 N.ar    1  UNL1       -0.3241
     38 C          62.3914   90.8765   10.4481 C.3     1  UNL1        0.1305
     39 C          64.1428   91.5169   12.3631 C.ar    1  UNL1        0.0577
     40 C          66.5723   94.0861   10.7624 C.2     1  UNL1        0.2473
     41 O          67.9553   93.6117   10.4272 O.2     1  UNL1       -0.2701
     42 N          66.2564   95.5523   10.7405 N.am    1  UNL1       -0.3008
     43 H          65.3487   95.8636   10.9605 H       1  UNL1        0.1497
     44 C          67.3235   96.5442   10.3834 C.3     1  UNL1        0.0901
     45 C          67.6064   96.8557    8.9437 C.3     1  UNL1        0.0272
     46 C          66.8470   96.1491    7.8602 C.3     1  UNL1        0.0435
     47 C          65.4519   96.5810    7.5180 C.2     1  UNL1        0.0504
     48 O          65.0462   96.7380    6.0825 O.co2   1  UNL1       -0.5492
     49 O          64.4624   96.8558    8.6113 O.co2   1  UNL1       -0.5492
     50 C          58.6831   89.2581    7.0564 C.3     1  UNL1        0.1177
     51 C          59.1935   90.1871    5.9950 C.ar    1  UNL1       -0.0025
     52 C          58.2396   91.0789    5.2570 C.ar    1  UNL1       -0.0026
     53 C          58.7500   92.0079    4.1956 C.ar    1  UNL1       -0.0003
     54 C          60.2142   92.0450    3.8722 C.ar    1  UNL1       -0.0000
     55 C          61.1682   91.1531    4.6103 C.ar    1  UNL1       -0.0003
     56 C          60.6578   90.2242    5.6717 C.ar    1  UNL1       -0.0026
@<TRIPOS>UNITY_ATOM_ATTR
48 1
charge -1
@<TRIPOS>BOND
     1    18    19    2
     2    19    17    1
     3    17     1    1
     4     1     2    1
     5     2     3    1
     6     3     4    2
     7     3     5   am
     8     5     6    1
     9     6    20    1
    10    20    21    1
    11    21    22   ar
    12    22    23   ar
    13    23    24   ar
    14    24    25    1
    15    24    26   ar
    16    26    27   ar
    17     6     7    1
    18     7     8    2
    19     7     9   am
    20     9    29    1
    21    29    30    1
    22    30    31   ar
    23    31    32   ar
    24    32    33   ar
    25    33    34   ar
    26    34    35   ar
    27    35    40    1
    28    40    41    2
    29    40    42   am
    30    42    44    1
    31    44    45    1
    32    45    46    1
    33    46    47    1
    34    47    48   ar
    35    47    49   ar
    36    35    36   ar
    37    36    37   ar
    38    37    38    1
    39    37    39   ar
    40     9    10    1
    41    11    10    1
    42    11    12    1
    43    12    13   am
    44    13    14    2
    45    13    15   am
    46    15    50    1
    47    50    51    1
    48    51    52   ar
    49    52    53   ar
    50    53    54   ar
    51    54    55   ar
    52    55    56   ar
    53    12     1    1
    54    56    51   ar
    55    11     5    1
    56    27    21   ar
    57    39    30   ar
    58    39    34   ar
    59    25    28    1
    60    42    43    1
    61    15    16    1
@<TRIPOS>MOLECULE
*****
 56 61 0 0 0
SMALL
GASTEIGER

@<TRIPOS>ATOM
      1 N          61.2424   85.5484    8.0319 N.3     1  UNL1       -0.1862
      2 C          62.1648   84.4312    8.4204 C.3     1  UNL1        0.1775
      3 C          62.8924   84.4808    9.7312 C.2     1  UNL1        0.2452
      4 O          63.8149   83.3635   10.1196 O.2     1  UNL1       -0.2732
      5 N          62.6976   85.6475   10.6534 N.am    1  UNL1       -0.2541
      6 C          63.4253   85.6971   11.9642 C.3     1  UNL1        0.1577
      7 C          63.2305   86.8639   12.8865 C.2     1  UNL1        0.2445
      8 O          63.9581   86.9134   14.1972 O.2     1  UNL1       -0.2731
      9 N          62.3080   87.9812   12.4980 N.am    1  UNL1       -0.2705
     10 C          61.5804   87.9316   11.1873 C.3     1  UNL1        0.1359
     11 C          61.7752   86.7647   10.2650 C.3     1  UNL1        0.1908
     12 N          61.0476   86.7152    8.9542 N.am    1  UNL1       -0.1863
     13 C          60.1252   87.8325    8.5657 C.2     1  UNL1        0.3191
     14 O          59.9304   88.9992    9.4880 O.2     1  UNL1       -0.2512
     15 N          59.3975   87.7829    7.2550 N.am    1  UNL1       -0.2836
     16 H          59.5254   87.0171    6.6496 H       1  UNL1        0.1513
     17 C          60.5148   85.4988    6.7211 C.3     1  UNL1        0.1188
     18 C          62.2876   84.2895    5.2567 C.2     1  UNL1       -0.0034
     19 C          60.8660   84.4505    5.7075 C.2     1  UNL1       -0.0071
     20 C          64.3477   84.5799   12.3527 C.3     1  UNL1        0.0556
     21 C          63.7929   83.3273   12.9636 C.ar    1  UNL1       -0.0198
     22 C          62.6058   83.4007   13.8776 C.ar    1  UNL1       -0.0011
     23 C          62.0510   82.1481   14.4885 C.ar    1  UNL1        0.0363
     24 C          62.6833   80.8221   14.1854 C.ar    1  UNL1        0.1337
     25 O          62.1285   79.5695   14.7963 O.3     1  UNL1       -0.5055
     26 C          63.8705   80.7486   13.2713 C.ar    1  UNL1        0.0363
     27 C          64.4252   82.0012   12.6604 C.ar    1  UNL1       -0.0011
     28 H          61.3870   79.6153   15.3672 H       1  UNL1        0.2922
     29 C          62.1133   89.1479   13.4203 C.3     1  UNL1        0.1217
     30 C          63.2266   90.1307   13.6320 C.ar    1  UNL1        0.0135
     31 C          63.9111   90.2129   14.9642 C.ar    1  UNL1       -0.0012
     32 C          65.0244   91.1956   15.1760 C.ar    1  UNL1       -0.0002
     33 C          65.4532   92.0960   14.0556 C.ar    1  UNL1        0.0016
     34 C          64.7688   92.0137   12.7234 C.ar    1  UNL1        0.0214
     35 C          64.9724   92.7666   11.4421 C.ar    1  UNL1        0.0719
     36 C          63.9850   92.2492   10.4385 C.ar    1  UNL1        0.0805
     37 N          63.1711   91.1766   11.0995 N.ar    1  UNL1       -0.3241
     38 C          62.0666   90.3880   10.4605 C.3     1  UNL1        0.1305
     39 C          63.6555   91.0310   12.5116 C.ar    1  UNL1        0.0577
     40 C          65.9857   93.8472   11.2059 C.2     1  UNL1        0.2473
     41 O          67.2150   93.9228   12.0622 O.2     1  UNL1       -0.2701
     42 N          65.7697   94.8521   10.1135 N.am    1  UNL1       -0.3008
     43 H          64.9629   94.8024    9.5515 H       1  UNL1        0.1497
     44 C          66.7829   95.9326    9.8773 C.3     1  UNL1        0.0901
     45 C          67.7277   95.8341    8.7164 C.3     1  UNL1        0.0272
     46 C          67.9088   94.5257    8.0057 C.3     1  UNL1        0.0435
     47 C          68.5478   93.3689    8.7153 C.2     1  UNL1        0.0504
     48 O          68.4119   91.9815    8.1615 O.co2   1  UNL1       -0.5492
     49 O          69.3228   93.5995    9.9787 O.co2   1  UNL1       -0.5492
     50 C          58.4751   88.9001    6.8665 C.3     1  UNL1        0.1177
     51 C          58.9585   89.9894    5.9556 C.ar    1  UNL1       -0.0025
     52 C          60.4180   90.1005    5.6279 C.ar    1  UNL1       -0.0026
     53 C          60.9014   91.1898    4.7170 C.ar    1  UNL1       -0.0003
     54 C          59.9253   92.1681    4.1339 C.ar    1  UNL1       -0.0000
     55 C          58.4657   92.0572    4.4617 C.ar    1  UNL1       -0.0003
     56 C          57.9823   90.9678    5.3725 C.ar    1  UNL1       -0.0026
@<TRIPOS>UNITY_ATOM_ATTR
48 1
charge -1
@<TRIPOS>BOND
     1    18    19    2
     2    19    17    1
     3    17     1    1
     4     1     2    1
     5     2     3    1
     6     3     4    2
     7     3     5   am
     8     5     6    1
     9     6    20    1
    10    20    21    1
    11    21    22   ar
    12    22    23   ar
    13    23    24   ar
    14    24    25    1
    15    24    26   ar
    16    26    27   ar
    17     6     7    1
    18     7     8    2
    19     7     9   am
    20     9    29    1
    21    29    30    1
    22    30    31   ar
    23    31    32   ar
    24    32    33   ar
    25    33    34   ar
    26    34    35   ar
    27    35    40    1
    28    40    41    2
    29    40    42   am
    30    42    44    1
    31    44    45    1
    32    45    46    1
    33    46    47    1
    34    47    48   ar
    35    47    49   ar
    36    35    36   ar
    37    36    37   ar
    38    37    38    1
    39    37    39   ar
    40     9    10    1
    41    11    10    1
    42    11    12    1
    43    12    13   am
    44    13    14    2
    45    13    15   am
    46    15    50    1
    47    50    51    1
    48    51    52   ar
    49    52    53   ar
    50    53    54   ar
    51    54    55   ar
    52    55    56   ar
    53    12     1    1
    54    56    51   ar
    55    11     5    1
    56    27    21   ar
    57    39    30   ar
    58    39    34   ar
    59    25    28    1
    60    42    43    1
    61    15    16    1
@<TRIPOS>MOLECULE
*****
 56 61 0 0 0
SMALL
GASTEIGER

@<TRIPOS>ATOM
      1 N          62.8535   84.0504    9.4193 N.3     1  UNL1       -0.1862
      2 C          62.1570   84.1284    8.0931 C.3     1  UNL1        0.1775
      3 C          61.3347   85.3343    7.7475 C.2     1  UNL1        0.2452
      4 O          60.6382   85.4122    6.4213 O.2     1  UNL1       -0.2732
      5 N          61.2088   86.4623    8.7282 N.am    1  UNL1       -0.2541
      6 C          60.3864   87.6683    8.3826 C.3     1  UNL1        0.1577
      7 C          60.2605   88.7963    9.3633 C.2     1  UNL1        0.2445
      8 O          59.4381   90.0022    9.0177 O.2     1  UNL1       -0.2731
      9 N          60.9570   88.7184   10.6895 N.am    1  UNL1       -0.2705
     10 C          61.7794   87.5124   11.0351 C.3     1  UNL1        0.1359
     11 C          61.9052   86.3844   10.0544 C.3     1  UNL1        0.1908
     12 N          62.7276   85.1784   10.3999 N.am    1  UNL1       -0.1863
     13 C          63.4241   85.1005   11.7262 C.2     1  UNL1        0.3191
     14 O          63.2982   86.2285   12.7068 O.2     1  UNL1       -0.2512
     15 N          64.2464   83.8946   12.0717 N.am    1  UNL1       -0.2836
     16 H          64.3291   83.1542   11.4281 H       1  UNL1        0.1513
     17 C          63.6759   82.8445    9.7648 C.3     1  UNL1        0.1188
     18 C          62.7244   81.3396   11.6569 C.2     1  UNL1       -0.0034
     19 C          63.0023   81.5776   10.2022 C.2     1  UNL1       -0.0071
     20 C          59.6899   87.7462    7.0564 C.3     1  UNL1        0.0556
     21 C          59.5387   89.0689    6.3653 C.ar    1  UNL1       -0.0198
     22 C          60.7449   89.7687    5.8128 C.ar    1  UNL1       -0.0011
     23 C          60.5937   91.0914    5.1217 C.ar    1  UNL1        0.0363
     24 C          59.2362   91.7142    4.9831 C.ar    1  UNL1        0.1337
     25 O          59.0850   93.0369    4.2919 O.3     1  UNL1       -0.5055
     26 C          58.0299   91.0144    5.5356 C.ar    1  UNL1        0.0363
     27 C          58.1811   89.6918    6.2267 C.ar    1  UNL1       -0.0011
     28 H          59.8385   93.4740    3.9468 H       1  UNL1        0.2922
     29 C          60.8311   89.8464   11.6702 C.3     1  UNL1        0.1217
     30 C          61.9904   90.2074   12.5510 C.ar    1  UNL1        0.0135
     31 C          61.9768   89.8271   14.0019 C.ar    1  UNL1       -0.0012
     32 C          63.1361   90.1881   14.8827 C.ar    1  UNL1       -0.0002
     33 C          64.3088   90.9294   14.3126 C.ar    1  UNL1        0.0016
     34 C          64.3224   91.3096   12.8616 C.ar    1  UNL1        0.0214
     35 C          65.3320   92.0370   12.0241 C.ar    1  UNL1        0.0719
     36 C          64.7968   92.1255   10.6256 C.ar    1  UNL1        0.0805
     37 N          63.4564   91.4529   10.5989 N.ar    1  UNL1       -0.3241
     38 C          62.5655   91.3097    9.4007 C.3     1  UNL1        0.1305
     39 C          63.1632   90.9486   11.9808 C.ar    1  UNL1        0.0577
     40 C          66.6463   92.5804   12.5012 C.2     1  UNL1        0.2473
     41 O          67.0795   93.9583   12.0966 O.2     1  UNL1       -0.2701
     42 N          67.5273   91.7459   13.3830 N.am    1  UNL1       -0.3008
     43 H          67.2429   90.8416   13.6485 H       1  UNL1        0.1497
     44 C          68.8414   92.2893   13.8601 C.3     1  UNL1        0.0901
     45 C          68.9741   92.8089   15.2609 C.3     1  UNL1        0.0272
     46 C          67.9649   92.4247   16.3021 C.3     1  UNL1        0.0435
     47 C          66.5502   92.9106   16.1905 C.2     1  UNL1        0.0504
     48 O          65.5267   92.4770   17.1978 O.co2   1  UNL1       -0.5492
     49 O          66.1588   93.8300   15.0719 O.co2   1  UNL1       -0.5492
     50 C          64.9429   83.8166   13.3979 C.3     1  UNL1        0.1177
     51 C          64.3556   84.5037   14.5950 C.ar    1  UNL1       -0.0025
     52 C          63.2314   83.8610   15.3521 C.ar    1  UNL1       -0.0026
     53 C          62.6441   84.5480   16.5492 C.ar    1  UNL1       -0.0003
     54 C          63.1810   85.8777   16.9892 C.ar    1  UNL1       -0.0000
     55 C          64.3052   86.5204   16.2322 C.ar    1  UNL1       -0.0003
     56 C          64.8925   85.8334   15.0351 C.ar    1  UNL1       -0.0026
@<TRIPOS>UNITY_ATOM_ATTR
48 1
charge -1
@<TRIPOS>BOND
     1    18    19    2
     2    19    17    1
     3    17     1    1
     4     1     2    1
     5     2     3    1
     6     3     4    2
     7     3     5   am
     8     5     6    1
     9     6    20    1
    10    20    21    1
    11    21    22   ar
    12    22    23   ar
    13    23    24   ar
    14    24    25    1
    15    24    26   ar
    16    26    27   ar
    17     6     7    1
    18     7     8    2
    19     7     9   am
    20     9    29    1
    21    29    30    1
    22    30    31   ar
    23    31    32   ar
    24    32    33   ar
    25    33    34   ar
    26    34    35   ar
    27    35    40    1
    28    40    41    2
    29    40    42   am
    30    42    44    1
    31    44    45    1
    32    45    46    1
    33    46    47    1
    34    47    48   ar
    35    47    49   ar
    36    35    36   ar
    37    36    37   ar
    38    37    38    1
    39    37    39   ar
    40     9    10    1
    41    11    10    1
    42    11    12    1
    43    12    13   am
    44    13    14    2
    45    13    15   am
    46    15    50    1
    47    50    51    1
    48    51    52   ar
    49    52    53   ar
    50    53    54   ar
    51    54    55   ar
    52    55    56   ar
    53    12     1    1
    54    56    51   ar
    55    11     5    1
    56    27    21   ar
    57    39    30   ar
    58    39    34   ar
    59    25    28    1
    60    42    43    1
    61    15    16    1
