@<TRIPOS>MOLECULE
*****
 30 32 0 0 0
SMALL
GASTEIGER

@<TRIPOS>ATOM
      1 N          62.4065   90.3637   11.4171 N.am    1  UNL1       -0.2438
      2 C          62.9557   91.1076   10.2360 C.3     1  UNL1        0.1009
      3 C          64.1600   91.9871   10.3976 C.3     1  UNL1        0.0661
      4 C          64.8151   92.1227   11.7401 C.3     1  UNL1        0.1582
      5 O          64.2659   91.3788   12.9212 O.3     1  UNL1       -0.4375
      6 C          63.0616   90.4992   12.7597 C.2     1  UNL1        0.4051
      7 O          62.5123   89.7553   13.9407 O.2     1  UNL1       -0.2262
      8 C          65.6984   93.0223   10.9272 C.ar    1  UNL1        0.0139
      9 C          66.8897   92.4570   10.2122 C.ar    1  UNL1        0.0014
     10 C          67.7730   93.3565    9.3994 C.ar    1  UNL1        0.0294
     11 C          67.4649   94.8213    9.3016 C.ar    1  UNL1        0.1401
     12 F          68.3482   95.7208    8.4888 F       1  UNL1       -0.2042
     13 C          66.2736   95.3866   10.0167 C.ar    1  UNL1        0.0294
     14 C          65.3903   94.4870   10.8295 C.ar    1  UNL1        0.0014
     15 C          59.9964   89.6970   12.1219 C.3     1  UNL1        0.0265
     16 C          61.2022   89.4841   11.2555 C.3     1  UNL1        0.1011
     17 C          61.2037   88.3917   10.2276 C.ar    1  UNL1       -0.0041
     18 C          62.2879   87.3551   10.2364 C.ar    1  UNL1       -0.0022
     19 C          62.2894   86.2628    9.2084 C.ar    1  UNL1        0.0064
     20 C          61.2068   86.2070    8.1717 C.ar    1  UNL1        0.0345
     21 BR         61.2083   85.1145    7.1437 Br      1  UNL1       -0.0490
     22 C          60.1226   87.2435    8.1629 C.ar    1  UNL1        0.0064
     23 C          60.1211   88.3359    9.1908 C.ar    1  UNL1       -0.0022
     24 C          65.7769   92.5707   12.8004 C.3     1  UNL1        0.0541
     25 C          66.3315   91.5775   13.7780 C.3     1  UNL1        0.0887
     26 C          67.7138   91.7609   14.3310 C.2     1  UNL1        0.2195
     27 N          68.8962   91.7662   13.4080 N.am    1  UNL1       -0.3288
     28 O          67.9136   91.9389   15.8069 O.2     1  UNL1       -0.2753
     29 H          68.7650   91.6494   12.4393 H       1  UNL1        0.1449
     30 H          69.8034   91.8866   13.7709 H       1  UNL1        0.1449
@<TRIPOS>BOND
     1    16    15    1
     2    16    17    1
     3    17    18   ar
     4    18    19   ar
     5    19    20   ar
     6    20    21    1
     7    20    22   ar
     8    22    23   ar
     9    16     1    1
    10     1     2    1
    11     2     3    1
    12     3     4    1
    13     4    24    1
    14    24    25    1
    15    25    26    1
    16    26    27   am
    17    26    28    2
    18     4     8    1
    19     8     9   ar
    20     9    10   ar
    21    10    11   ar
    22    11    12    1
    23    11    13   ar
    24    13    14   ar
    25     4     5    1
    26     5     6    1
    27     6     7    2
    28    23    17   ar
    29     6     1   am
    30    14     8   ar
    31    27    29    1
    32    27    30    1
@<TRIPOS>MOLECULE
*****
 30 32 0 0 0
SMALL
GASTEIGER

@<TRIPOS>ATOM
      1 N          62.8683   90.2395   11.6149 N.am    1  UNL1       -0.2438
      2 C          63.3928   90.9574   10.4068 C.3     1  UNL1        0.1009
      3 C          64.4666   91.9938   10.5576 C.3     1  UNL1        0.0661
      4 C          65.0160   92.3123   11.9165 C.3     1  UNL1        0.1582
      5 O          64.4915   91.5944   13.1247 O.3     1  UNL1       -0.4375
      6 C          63.4177   90.5580   12.9739 C.2     1  UNL1        0.4051
      7 O          62.8932   89.8401   14.1820 O.2     1  UNL1       -0.2262
      8 C          65.8294   93.2544   11.0794 C.ar    1  UNL1        0.0139
      9 C          65.6256   94.7353   11.2041 C.ar    1  UNL1        0.0014
     10 C          66.4390   95.6774   10.3669 C.ar    1  UNL1        0.0294
     11 C          67.4562   95.1387    9.4051 C.ar    1  UNL1        0.1401
     12 F          68.2696   96.0808    8.5680 F       1  UNL1       -0.2042
     13 C          67.6600   93.6578    9.2804 C.ar    1  UNL1        0.0294
     14 C          66.8466   92.7157   10.1176 C.ar    1  UNL1        0.0014
     15 C          60.3534   89.5875   11.6237 C.3     1  UNL1        0.0265
     16 C          61.7945   89.2031   11.4640 C.3     1  UNL1        0.1011
     17 C          62.1617   87.7822   11.1536 C.ar    1  UNL1       -0.0041
     18 C          62.0184   87.2590    9.7552 C.ar    1  UNL1       -0.0022
     19 C          62.3857   85.8382    9.4448 C.ar    1  UNL1        0.0064
     20 C          62.8963   84.9407   10.5328 C.ar    1  UNL1        0.0345
     21 BR         63.2636   83.5198   10.2223 Br      1  UNL1       -0.0490
     22 C          63.0396   85.4639   11.9312 C.ar    1  UNL1        0.0064
     23 C          62.6723   86.8847   12.2416 C.ar    1  UNL1       -0.0022
     24 C          65.8479   92.9580   12.9848 C.3     1  UNL1        0.0541
     25 C          66.6891   92.1122   13.8941 C.3     1  UNL1        0.0887
     26 C          68.1821   92.2571   13.8849 C.2     1  UNL1        0.2195
     27 N          68.9960   91.5670   12.8308 N.am    1  UNL1       -0.3288
     28 O          68.8610   93.0921   14.9298 O.2     1  UNL1       -0.2753
     29 H          68.5504   91.0190   12.1450 H       1  UNL1        0.1449
     30 H          69.9759   91.6621   12.8247 H       1  UNL1        0.1449
@<TRIPOS>BOND
     1    16    15    1
     2    16    17    1
     3    17    18   ar
     4    18    19   ar
     5    19    20   ar
     6    20    21    1
     7    20    22   ar
     8    22    23   ar
     9    16     1    1
    10     1     2    1
    11     2     3    1
    12     3     4    1
    13     4    24    1
    14    24    25    1
    15    25    26    1
    16    26    27   am
    17    26    28    2
    18     4     8    1
    19     8     9   ar
    20     9    10   ar
    21    10    11   ar
    22    11    12    1
    23    11    13   ar
    24    13    14   ar
    25     4     5    1
    26     5     6    1
    27     6     7    2
    28    23    17   ar
    29     6     1   am
    30    14     8   ar
    31    27    29    1
    32    27    30    1
@<TRIPOS>MOLECULE
*****
 30 32 0 0 0
SMALL
GASTEIGER

@<TRIPOS>ATOM
      1 N          62.4934   90.1867   11.7904 N.am    1  UNL1       -0.2438
      2 C          63.1323   90.0759   13.1430 C.3     1  UNL1        0.1009
      3 C          64.3981   90.8248   13.4382 C.3     1  UNL1        0.0661
      4 C          65.0250   91.6843   12.3808 C.3     1  UNL1        0.1582
      5 O          64.3861   91.7951   11.0281 O.3     1  UNL1       -0.4375
      6 C          63.1203   91.0463   10.7329 C.2     1  UNL1        0.4051
      7 O          62.4814   91.1570    9.3804 O.2     1  UNL1       -0.2262
      8 C          65.9991   91.8978   13.5013 C.ar    1  UNL1        0.0139
      9 C          65.4989   92.2104   14.8805 C.ar    1  UNL1        0.0014
     10 C          66.4731   92.4240   16.0010 C.ar    1  UNL1        0.0294
     11 C          67.9472   92.3249   15.7423 C.ar    1  UNL1        0.1401
     12 F          68.9214   92.5384   16.8628 F       1  UNL1       -0.2042
     13 C          68.4474   92.0123   14.3631 C.ar    1  UNL1        0.0294
     14 C          67.4733   91.7987   13.2426 C.ar    1  UNL1        0.0014
     15 C          59.9790   89.7411   12.2691 C.3     1  UNL1        0.0265
     16 C          61.2277   89.4379   11.4953 C.3     1  UNL1        0.1011
     17 C          61.2106   88.3858   10.4262 C.ar    1  UNL1       -0.0041
     18 C          60.1345   88.3957    9.3813 C.ar    1  UNL1       -0.0022
     19 C          60.1174   87.3436    8.3123 C.ar    1  UNL1        0.0064
     20 C          61.1765   86.2817    8.2881 C.ar    1  UNL1        0.0345
     21 BR         61.1594   85.2296    7.2190 Br      1  UNL1       -0.0490
     22 C          62.2526   86.2718    9.3330 C.ar    1  UNL1        0.0064
     23 C          62.2697   87.3238   10.4020 C.ar    1  UNL1       -0.0022
     24 C          65.9902   92.6181   11.7125 C.3     1  UNL1        0.0541
     25 C          65.4786   93.7473   10.8681 C.3     1  UNL1        0.0887
     26 C          66.2627   95.0220   10.7654 C.2     1  UNL1        0.2195
     27 N          65.6876   96.3010   11.2976 N.am    1  UNL1       -0.3288
     28 O          67.6217   95.0175   10.1306 O.2     1  UNL1       -0.2753
     29 H          64.7956   96.3039   11.7142 H       1  UNL1        0.1449
     30 H          66.2022   97.1377   11.2303 H       1  UNL1        0.1449
@<TRIPOS>BOND
     1    16    15    1
     2    16    17    1
     3    17    18   ar
     4    18    19   ar
     5    19    20   ar
     6    20    21    1
     7    20    22   ar
     8    22    23   ar
     9    16     1    1
    10     1     2    1
    11     2     3    1
    12     3     4    1
    13     4    24    1
    14    24    25    1
    15    25    26    1
    16    26    27   am
    17    26    28    2
    18     4     8    1
    19     8     9   ar
    20     9    10   ar
    21    10    11   ar
    22    11    12    1
    23    11    13   ar
    24    13    14   ar
    25     4     5    1
    26     5     6    1
    27     6     7    2
    28    23    17   ar
    29     6     1   am
    30    14     8   ar
    31    27    29    1
    32    27    30    1
@<TRIPOS>MOLECULE
*****
 30 32 0 0 0
SMALL
GASTEIGER

@<TRIPOS>ATOM
      1 N          63.1347   90.0792   11.8983 N.am    1  UNL1       -0.2438
      2 C          63.8834   89.9116   13.1873 C.3     1  UNL1        0.1009
      3 C          65.0228   90.8296   13.5176 C.3     1  UNL1        0.0661
      4 C          65.4135   91.9151   12.5590 C.3     1  UNL1        0.1582
      5 O          64.6648   92.0827   11.2700 O.3     1  UNL1       -0.4375
      6 C          63.5254   91.1648   10.9397 C.2     1  UNL1        0.4051
      7 O          62.7768   91.3324    9.6508 O.2     1  UNL1       -0.2262
      8 C          66.4192   92.1532   13.6462 C.ar    1  UNL1        0.0139
      9 C          67.8767   91.9135   13.3852 C.ar    1  UNL1        0.0014
     10 C          68.8824   92.1516   14.4724 C.ar    1  UNL1        0.0294
     11 C          68.4305   92.6295   15.8205 C.ar    1  UNL1        0.1401
     12 F          69.4362   92.8676   16.9077 F       1  UNL1       -0.2042
     13 C          66.9730   92.8692   16.0815 C.ar    1  UNL1        0.0294
     14 C          65.9673   92.6311   14.9943 C.ar    1  UNL1        0.0014
     15 C          60.5810   89.6421   11.7044 C.3     1  UNL1        0.0265
     16 C          61.9953   89.1613   11.5680 C.3     1  UNL1        0.1011
     17 C          62.2702   87.7625   11.1012 C.ar    1  UNL1       -0.0041
     18 C          62.6134   86.6936   12.0960 C.ar    1  UNL1       -0.0022
     19 C          62.8883   85.2949   11.6292 C.ar    1  UNL1        0.0064
     20 C          62.8200   84.9650   10.1675 C.ar    1  UNL1        0.0345
     21 BR         63.0949   83.5662    9.7007 Br      1  UNL1       -0.0490
     22 C          62.4768   86.0339    9.1727 C.ar    1  UNL1        0.0064
     23 C          62.2019   87.4326    9.6395 C.ar    1  UNL1       -0.0022
     24 C          66.1535   93.0834   11.9780 C.3     1  UNL1        0.0541
     25 C          66.3364   93.1921   10.4932 C.3     1  UNL1        0.0887
     26 C          67.6429   93.6690    9.9313 C.2     1  UNL1        0.2195
     27 N          68.8548   92.7878    9.9991 N.am    1  UNL1       -0.3288
     28 O          67.7373   95.0272    9.3017 O.2     1  UNL1       -0.2753
     29 H          68.7927   91.8964   10.4124 H       1  UNL1        0.1449
     30 H          69.7123   93.1008    9.6304 H       1  UNL1        0.1449
@<TRIPOS>BOND
     1    16    15    1
     2    16    17    1
     3    17    18   ar
     4    18    19   ar
     5    19    20   ar
     6    20    21    1
     7    20    22   ar
     8    22    23   ar
     9    16     1    1
    10     1     2    1
    11     2     3    1
    12     3     4    1
    13     4    24    1
    14    24    25    1
    15    25    26    1
    16    26    27   am
    17    26    28    2
    18     4     8    1
    19     8     9   ar
    20     9    10   ar
    21    10    11   ar
    22    11    12    1
    23    11    13   ar
    24    13    14   ar
    25     4     5    1
    26     5     6    1
    27     6     7    2
    28    23    17   ar
    29     6     1   am
    30    14     8   ar
    31    27    29    1
    32    27    30    1
@<TRIPOS>MOLECULE
*****
 30 32 0 0 0
SMALL
GASTEIGER

@<TRIPOS>ATOM
      1 N          63.9691   90.7307   12.2675 N.am    1  UNL1       -0.2438
      2 C          64.2942   91.3137   10.9243 C.3     1  UNL1        0.1009
      3 C          65.1540   92.5389   10.8266 C.3     1  UNL1        0.0661
      4 C          65.6887   93.1812   12.0722 C.3     1  UNL1        0.1582
      5 O          65.3636   92.5982   13.4156 O.3     1  UNL1       -0.4375
      6 C          64.5038   91.3729   13.5132 C.2     1  UNL1        0.4051
      7 O          64.1787   90.7900   14.8565 O.2     1  UNL1       -0.2262
      8 C          66.2696   94.0978   11.0366 C.ar    1  UNL1        0.0139
      9 C          66.0586   95.5791   11.1431 C.ar    1  UNL1        0.0014
     10 C          66.6395   96.4957   10.1075 C.ar    1  UNL1        0.0294
     11 C          67.4313   95.9309    8.9655 C.ar    1  UNL1        0.1401
     12 F          68.0122   96.8476    7.9299 F       1  UNL1       -0.2042
     13 C          67.6423   94.4497    8.8591 C.ar    1  UNL1        0.0294
     14 C          67.0614   93.5330    9.8947 C.ar    1  UNL1        0.0014
     15 C          63.1754   88.6383   13.5873 C.3     1  UNL1        0.0265
     16 C          63.1093   89.5055   12.3652 C.3     1  UNL1        0.1011
     17 C          62.1834   89.1474   11.2406 C.ar    1  UNL1       -0.0041
     18 C          62.3540   87.8463   10.5140 C.ar    1  UNL1       -0.0022
     19 C          61.4281   87.4883    9.3895 C.ar    1  UNL1        0.0064
     20 C          60.3317   88.4314    8.9916 C.ar    1  UNL1        0.0345
     21 BR         59.4058   88.0733    7.8671 Br      1  UNL1       -0.0490
     22 C          60.1611   89.7325    9.7182 C.ar    1  UNL1        0.0064
     23 C          61.0869   90.0905   10.8427 C.ar    1  UNL1       -0.0022
     24 C          66.4251   94.1418   12.9582 C.3     1  UNL1        0.0541
     25 C          66.9548   93.6835   14.2846 C.3     1  UNL1        0.0887
     26 C          67.8185   92.4597   14.3651 C.2     1  UNL1        0.2195
     27 N          68.6183   92.0266   13.1724 N.am    1  UNL1       -0.3288
     28 O          67.8822   91.6692   15.6383 O.2     1  UNL1       -0.2753
     29 H          68.5764   92.5454   12.3368 H       1  UNL1        0.1449
     30 H          69.1852   91.2234   13.2252 H       1  UNL1        0.1449
@<TRIPOS>BOND
     1    16    15    1
     2    16    17    1
     3    17    18   ar
     4    18    19   ar
     5    19    20   ar
     6    20    21    1
     7    20    22   ar
     8    22    23   ar
     9    16     1    1
    10     1     2    1
    11     2     3    1
    12     3     4    1
    13     4    24    1
    14    24    25    1
    15    25    26    1
    16    26    27   am
    17    26    28    2
    18     4     8    1
    19     8     9   ar
    20     9    10   ar
    21    10    11   ar
    22    11    12    1
    23    11    13   ar
    24    13    14   ar
    25     4     5    1
    26     5     6    1
    27     6     7    2
    28    23    17   ar
    29     6     1   am
    30    14     8   ar
    31    27    29    1
    32    27    30    1
@<TRIPOS>MOLECULE
*****
 30 32 0 0 0
SMALL
GASTEIGER

@<TRIPOS>ATOM
      1 N          63.3501   89.0952   13.0013 N.am    1  UNL1       -0.2438
      2 C          63.9711   87.7983   13.4281 C.3     1  UNL1        0.1009
      3 C          63.4846   86.5055   12.8435 C.3     1  UNL1        0.0661
      4 C          62.3770   86.5095   11.8319 C.3     1  UNL1        0.1582
      5 O          61.7559   87.8065   11.4050 O.3     1  UNL1       -0.4375
      6 C          62.2425   89.0994   11.9897 C.2     1  UNL1        0.4051
      7 O          61.6215   90.3963   11.5628 O.2     1  UNL1       -0.2262
      8 C          62.6458   85.0363   11.9179 C.ar    1  UNL1        0.0139
      9 C          62.4036   84.3035   13.2041 C.ar    1  UNL1        0.0014
     10 C          62.6725   82.8303   13.2900 C.ar    1  UNL1        0.0294
     11 C          63.1834   82.0899   12.0897 C.ar    1  UNL1        0.1401
     12 F          63.4523   80.6167   12.1757 F       1  UNL1       -0.2042
     13 C          63.4256   82.8227   10.8035 C.ar    1  UNL1        0.0294
     14 C          63.1568   84.2959   10.7176 C.ar    1  UNL1        0.0014
     15 C          63.5449   90.7198   15.0193 C.3     1  UNL1        0.0265
     16 C          63.8367   90.3881   13.5859 C.3     1  UNL1        0.1011
     17 C          64.6150   91.3492   12.7371 C.ar    1  UNL1       -0.0041
     18 C          64.2147   91.5843   11.3108 C.ar    1  UNL1       -0.0022
     19 C          64.9931   92.5453   10.4620 C.ar    1  UNL1        0.0064
     20 C          66.1718   93.2713   11.0396 C.ar    1  UNL1        0.0345
     21 BR         66.9502   94.2324   10.1907 Br      1  UNL1       -0.0490
     22 C          66.5721   93.0362   12.4659 C.ar    1  UNL1        0.0064
     23 C          65.7938   92.0752   13.3146 C.ar    1  UNL1       -0.0022
     24 C          61.3628   86.0020   10.8502 C.3     1  UNL1        0.0541
     25 C          60.8661   86.8976    9.7543 C.3     1  UNL1        0.0887
     26 C          60.5045   86.3188    8.4186 C.2     1  UNL1        0.2195
     27 N          59.1005   86.4388    7.9045 N.am    1  UNL1       -0.3288
     28 O          61.5470   85.6200    7.5970 O.2     1  UNL1       -0.2753
     29 H          58.4163   86.8975    8.4437 H       1  UNL1        0.1449
     30 H          58.8631   86.0589    7.0278 H       1  UNL1        0.1449
@<TRIPOS>BOND
     1    16    15    1
     2    16    17    1
     3    17    18   ar
     4    18    19   ar
     5    19    20   ar
     6    20    21    1
     7    20    22   ar
     8    22    23   ar
     9    16     1    1
    10     1     2    1
    11     2     3    1
    12     3     4    1
    13     4    24    1
    14    24    25    1
    15    25    26    1
    16    26    27   am
    17    26    28    2
    18     4     8    1
    19     8     9   ar
    20     9    10   ar
    21    10    11   ar
    22    11    12    1
    23    11    13   ar
    24    13    14   ar
    25     4     5    1
    26     5     6    1
    27     6     7    2
    28    23    17   ar
    29     6     1   am
    30    14     8   ar
    31    27    29    1
    32    27    30    1
@<TRIPOS>MOLECULE
*****
 30 32 0 0 0
SMALL
GASTEIGER

@<TRIPOS>ATOM
      1 N          62.6553   88.2466   12.2142 N.am    1  UNL1       -0.2438
      2 C          62.2931   87.1695   11.2351 C.3     1  UNL1        0.1009
      3 C          62.6976   85.7494   11.4987 C.3     1  UNL1        0.0661
      4 C          63.4644   85.4063   12.7414 C.3     1  UNL1        0.1582
      5 O          63.8266   86.4834   13.7206 O.3     1  UNL1       -0.4375
      6 C          63.4221   87.9035   13.4570 C.2     1  UNL1        0.4051
      7 O          63.7844   88.9806   14.4361 O.2     1  UNL1       -0.2262
      8 C          63.3552   84.0459   12.1188 C.ar    1  UNL1        0.0139
      9 C          62.5914   82.9604   12.8175 C.ar    1  UNL1        0.0014
     10 C          62.4823   81.6000   12.1949 C.ar    1  UNL1        0.0294
     11 C          63.1370   81.3254   10.8736 C.ar    1  UNL1        0.1401
     12 F          63.0279   79.9650   10.2510 F       1  UNL1       -0.2042
     13 C          63.9008   82.4109   10.1748 C.ar    1  UNL1        0.0294
     14 C          64.0099   83.7712   10.7975 C.ar    1  UNL1        0.0014
     15 C          60.7978   90.0348   11.8956 C.3     1  UNL1        0.0265
     16 C          62.2508   89.6668   11.9506 C.3     1  UNL1        0.1011
     17 C          63.2995   90.7189   11.7420 C.ar    1  UNL1       -0.0041
     18 C          64.1207   91.1996   12.9015 C.ar    1  UNL1       -0.0022
     19 C          65.1693   92.2517   12.6928 C.ar    1  UNL1        0.0064
     20 C          65.3966   92.8230   11.3247 C.ar    1  UNL1        0.0345
     21 BR         66.4453   93.8751   11.1161 Br      1  UNL1       -0.0490
     22 C          64.5754   92.3423   10.1652 C.ar    1  UNL1        0.0064
     23 C          63.5268   91.2903   10.3738 C.ar    1  UNL1       -0.0022
     24 C          64.1932   84.5907   13.7679 C.3     1  UNL1        0.0541
     25 C          64.4348   85.1515   15.1380 C.3     1  UNL1        0.0887
     26 C          63.2815   85.3757   16.0707 C.2     1  UNL1        0.2195
     27 N          63.1166   86.7005   16.7545 N.am    1  UNL1       -0.3288
     28 O          62.2934   84.2750   16.3195 O.2     1  UNL1       -0.2753
     29 H          63.7652   87.4229   16.5911 H       1  UNL1        0.1449
     30 H          62.3597   86.8477   17.3666 H       1  UNL1        0.1449
@<TRIPOS>BOND
     1    16    15    1
     2    16    17    1
     3    17    18   ar
     4    18    19   ar
     5    19    20   ar
     6    20    21    1
     7    20    22   ar
     8    22    23   ar
     9    16     1    1
    10     1     2    1
    11     2     3    1
    12     3     4    1
    13     4    24    1
    14    24    25    1
    15    25    26    1
    16    26    27   am
    17    26    28    2
    18     4     8    1
    19     8     9   ar
    20     9    10   ar
    21    10    11   ar
    22    11    12    1
    23    11    13   ar
    24    13    14   ar
    25     4     5    1
    26     5     6    1
    27     6     7    2
    28    23    17   ar
    29     6     1   am
    30    14     8   ar
    31    27    29    1
    32    27    30    1
@<TRIPOS>MOLECULE
*****
 30 32 0 0 0
SMALL
GASTEIGER

@<TRIPOS>ATOM
      1 N          62.0380   88.6606   10.9988 N.am    1  UNL1       -0.2438
      2 C          62.6384   87.7614   12.0384 C.3     1  UNL1        0.1009
      3 C          62.8102   86.2983   11.7559 C.3     1  UNL1        0.0661
      4 C          62.3815   85.7344   10.4338 C.3     1  UNL1        0.1582
      5 O          61.7810   86.6335    9.3940 O.3     1  UNL1       -0.4375
      6 C          61.6093   88.0966    9.6765 C.2     1  UNL1        0.4051
      7 O          61.0088   88.9958    8.6369 O.2     1  UNL1       -0.2262
      8 C          62.8950   84.4891   11.0940 C.ar    1  UNL1        0.0139
      9 C          63.7929   83.5552   10.3379 C.ar    1  UNL1        0.0014
     10 C          64.3064   82.3099   10.9981 C.ar    1  UNL1        0.0294
     11 C          63.9220   81.9987   12.4142 C.ar    1  UNL1        0.1401
     12 F          64.4355   80.7535   13.0743 F       1  UNL1       -0.2042
     13 C          63.0241   82.9327   13.1702 C.ar    1  UNL1        0.0294
     14 C          62.5106   84.1779   12.5101 C.ar    1  UNL1        0.0014
     15 C          60.4930   90.7266   11.3063 C.3     1  UNL1        0.0265
     16 C          61.8663   90.1237   11.2812 C.3     1  UNL1        0.1011
     17 C          63.0679   90.9840   11.5387 C.ar    1  UNL1       -0.0041
     18 C          63.6358   91.0841   12.9233 C.ar    1  UNL1       -0.0022
     19 C          64.8374   91.9443   13.1807 C.ar    1  UNL1        0.0064
     20 C          65.4710   92.7044   12.0534 C.ar    1  UNL1        0.0345
     21 BR         66.6726   93.5646   12.3108 Br      1  UNL1       -0.0490
     22 C          64.9030   92.6043   10.6687 C.ar    1  UNL1        0.0064
     23 C          63.7015   91.7441   10.4114 C.ar    1  UNL1       -0.0022
     24 C          62.1311   84.7379    9.3409 C.3     1  UNL1        0.0541
     25 C          62.2231   85.1609    7.9047 C.3     1  UNL1        0.0887
     26 C          61.0366   85.0070    7.0000 C.2     1  UNL1        0.2195
     27 N          59.7505   85.7075    7.3241 N.am    1  UNL1       -0.3288
     28 O          61.1364   84.1524    5.7712 O.2     1  UNL1       -0.2753
     29 H          59.6851   86.2684    8.1305 H       1  UNL1        0.1449
     30 H          58.9718   85.6065    6.7303 H       1  UNL1        0.1449
@<TRIPOS>BOND
     1    16    15    1
     2    16    17    1
     3    17    18   ar
     4    18    19   ar
     5    19    20   ar
     6    20    21    1
     7    20    22   ar
     8    22    23   ar
     9    16     1    1
    10     1     2    1
    11     2     3    1
    12     3     4    1
    13     4    24    1
    14    24    25    1
    15    25    26    1
    16    26    27   am
    17    26    28    2
    18     4     8    1
    19     8     9   ar
    20     9    10   ar
    21    10    11   ar
    22    11    12    1
    23    11    13   ar
    24    13    14   ar
    25     4     5    1
    26     5     6    1
    27     6     7    2
    28    23    17   ar
    29     6     1   am
    30    14     8   ar
    31    27    29    1
    32    27    30    1
@<TRIPOS>MOLECULE
*****
 30 32 0 0 0
SMALL
GASTEIGER

@<TRIPOS>ATOM
      1 N          63.5551   86.1914   13.9266 N.am    1  UNL1       -0.2438
      2 C          64.4583   87.1381   14.6599 C.3     1  UNL1        0.1009
      3 C          64.5654   88.5672   14.2170 C.3     1  UNL1        0.0661
      4 C          63.7694   89.0496   13.0408 C.3     1  UNL1        0.1582
      5 O          62.8661   88.1028   12.3074 O.3     1  UNL1       -0.4375
      6 C          62.7590   86.6737   12.7503 C.2     1  UNL1        0.4051
      7 O          61.8558   85.7270   12.0169 O.2     1  UNL1       -0.2262
      8 C          64.4821   90.3168   13.4102 C.ar    1  UNL1        0.0139
      9 C          64.7553   91.3560   12.3637 C.ar    1  UNL1        0.0014
     10 C          65.4680   92.6232   12.7331 C.ar    1  UNL1        0.0294
     11 C          65.9075   92.8509   14.1491 C.ar    1  UNL1        0.1401
     12 F          66.6202   94.1181   14.5185 F       1  UNL1       -0.2042
     13 C          65.6343   91.8116   15.1956 C.ar    1  UNL1        0.0294
     14 C          64.9216   90.5445   14.8262 C.ar    1  UNL1        0.0014
     15 C          63.4187   84.4305   15.8320 C.3     1  UNL1        0.0265
     16 C          63.4480   84.7623   14.3694 C.3     1  UNL1        0.1011
     17 C          63.3700   83.6649   13.3497 C.ar    1  UNL1       -0.0041
     18 C          64.3170   83.6534   12.1865 C.ar    1  UNL1       -0.0022
     19 C          64.2390   82.5561   11.1668 C.ar    1  UNL1        0.0064
     20 C          63.2142   81.4702   11.3104 C.ar    1  UNL1        0.0345
     21 BR         63.1363   80.3729   10.2906 Br      1  UNL1       -0.0490
     22 C          62.2672   81.4817   12.4736 C.ar    1  UNL1        0.0064
     23 C          62.3452   82.5790   13.4933 C.ar    1  UNL1       -0.0022
     24 C          63.2208   89.9721   11.9928 C.3     1  UNL1        0.0541
     25 C          62.0999   89.5174   11.1059 C.3     1  UNL1        0.0887
     26 C          60.6906   89.9363   11.4037 C.2     1  UNL1        0.2195
     27 N          60.0895   89.6445   12.7467 N.am    1  UNL1       -0.3288
     28 O          59.8827   90.6470   10.3587 O.2     1  UNL1       -0.2753
     29 H          60.6198   89.1781   13.4325 H       1  UNL1        0.1449
     30 H          59.1646   89.9194   12.9422 H       1  UNL1        0.1449
@<TRIPOS>BOND
     1    16    15    1
     2    16    17    1
     3    17    18   ar
     4    18    19   ar
     5    19    20   ar
     6    20    21    1
     7    20    22   ar
     8    22    23   ar
     9    16     1    1
    10     1     2    1
    11     2     3    1
    12     3     4    1
    13     4    24    1
    14    24    25    1
    15    25    26    1
    16    26    27   am
    17    26    28    2
    18     4     8    1
    19     8     9   ar
    20     9    10   ar
    21    10    11   ar
    22    11    12    1
    23    11    13   ar
    24    13    14   ar
    25     4     5    1
    26     5     6    1
    27     6     7    2
    28    23    17   ar
    29     6     1   am
    30    14     8   ar
    31    27    29    1
    32    27    30    1
