@<TRIPOS>MOLECULE
*****
 27 29 0 0 0
SMALL
GASTEIGER

@<TRIPOS>ATOM
      1 N          63.9179   85.3026   14.2353 N.am    1  UNL1       -0.2678
      2 C          64.5324   86.5182   14.8635 C.3     1  UNL1        0.1398
      3 C          64.1446   87.7113   14.0412 C.ar    1  UNL1        0.0830
      4 N          64.4589   89.1713   14.1804 N.ar    1  UNL1       -0.2524
      5 C          63.9189   90.1532   13.1832 C.ar    1  UNL1        0.0563
      6 C          64.2333   91.6133   13.3224 C.3     1  UNL1        0.0518
      7 C          63.0646   89.6750   12.0468 C.ar    1  UNL1        0.0072
      8 C          62.7503   88.2149   11.9076 C.ar    1  UNL1        0.0048
      9 C          63.2902   87.2331   12.9048 C.ar    1  UNL1        0.0686
     10 C          63.1501   85.7445   13.0248 C.2     1  UNL1        0.2506
     11 O          62.3779   84.8540   12.0970 O.2     1  UNL1       -0.2699
     12 C          61.8959   87.7366   10.7712 C.ar    1  UNL1        0.0106
     13 C          62.5245   87.0345    9.6042 C.ar    1  UNL1        0.0017
     14 C          61.6701   86.5562    8.4678 C.ar    1  UNL1        0.0114
     15 C          60.1873   86.7802    8.4984 C.ar    1  UNL1        0.0585
     16 CL         59.3330   86.3019    7.3619 Cl      1  UNL1       -0.0822
     17 C          59.5587   87.4824    9.6654 C.ar    1  UNL1        0.0228
     18 C          60.4130   87.9606   10.8018 C.ar    1  UNL1        0.0585
     19 CL         59.7845   88.6628   11.9688 Cl      1  UNL1       -0.0822
     20 C          62.5246   90.6568   11.0496 C.3     1  UNL1        0.0934
     21 N          63.4322   91.2476   10.0117 N.3     1  UNL1       -0.3174
     22 H          64.1325   91.8336   10.4662 H       1  UNL1        0.1192
     23 H          62.8845   91.8132    9.3633 H       1  UNL1        0.1192
     24 C          64.0481   83.8928   14.7307 C.3     1  UNL1        0.1261
     25 C          62.8194   83.0892   15.0377 C.3     1  UNL1        0.1637
     26 C          61.3606   81.1371   14.1369 C.3     1  UNL1        0.1742
     27 O          62.7004   81.6801   14.5375 O.3     1  UNL1       -0.3493
@<TRIPOS>BOND
     1    26    27    1
     2    27    25    1
     3    25    24    1
     4    24     1    1
     5     1     2    1
     6     2     3    1
     7     3     4   ar
     8     4     5   ar
     9     5     6    1
    10     5     7   ar
    11     7    20    1
    12    20    21    1
    13     7     8   ar
    14     8    12    1
    15    12    13   ar
    16    13    14   ar
    17    14    15   ar
    18    15    16    1
    19    15    17   ar
    20    17    18   ar
    21    18    19    1
    22     8     9   ar
    23     9    10    1
    24    10    11    2
    25    10     1   am
    26     9     3   ar
    27    18    12   ar
    28    21    22    1
    29    21    23    1
@<TRIPOS>MOLECULE
*****
 27 29 0 0 0
SMALL
GASTEIGER

@<TRIPOS>ATOM
      1 N          62.9008   90.1744   12.1539 N.am    1  UNL1       -0.2678
      2 C          61.9526   90.7879   11.1667 C.3     1  UNL1        0.1398
      3 C          61.3904   89.6864   10.3178 C.ar    1  UNL1        0.0830
      4 N          60.4090   89.6947    9.1834 N.ar    1  UNL1       -0.2524
      5 C          60.0284   88.4087    8.5116 C.ar    1  UNL1        0.0563
      6 C          59.0471   88.4170    7.3772 C.3     1  UNL1        0.0518
      7 C          60.6292   87.1144    8.9741 C.ar    1  UNL1        0.0072
      8 C          61.6105   87.1061   10.1086 C.ar    1  UNL1        0.0048
      9 C          61.9911   88.3921   10.7804 C.ar    1  UNL1        0.0686
     10 C          62.9246   88.6938   11.9152 C.2     1  UNL1        0.2506
     11 O          63.7389   87.6908   12.6774 O.2     1  UNL1       -0.2699
     12 C          62.2113   85.8119   10.5712 C.ar    1  UNL1        0.0106
     13 C          61.8949   85.2848   11.9394 C.ar    1  UNL1        0.0017
     14 C          62.4956   83.9905   12.4020 C.ar    1  UNL1        0.0114
     15 C          63.4127   83.2233   11.4963 C.ar    1  UNL1        0.0585
     16 CL         64.0135   81.9290   11.9589 Cl      1  UNL1       -0.0822
     17 C          63.7291   83.7503   10.1280 C.ar    1  UNL1        0.0228
     18 C          63.1284   85.0446    9.6654 C.ar    1  UNL1        0.0585
     19 CL         63.4447   85.5717    8.2972 Cl      1  UNL1       -0.0822
     20 C          60.2486   85.8284    8.3023 C.3     1  UNL1        0.0934
     21 N          60.6930   85.5570    6.8956 N.3     1  UNL1       -0.3174
     22 H          60.2438   86.2194    6.2633 H       1  UNL1        0.1192
     23 H          60.4317   84.6064    6.6339 H       1  UNL1        0.1192
     24 C          63.6871   90.9121   13.1968 C.3     1  UNL1        0.1261
     25 C          63.9227   90.2872   14.5399 C.3     1  UNL1        0.1637
     26 C          63.0092   89.0597   16.6396 C.3     1  UNL1        0.1742
     27 O          62.7660   89.7551   15.3329 O.3     1  UNL1       -0.3493
@<TRIPOS>BOND
     1    26    27    1
     2    27    25    1
     3    25    24    1
     4    24     1    1
     5     1     2    1
     6     2     3    1
     7     3     4   ar
     8     4     5   ar
     9     5     6    1
    10     5     7   ar
    11     7    20    1
    12    20    21    1
    13     7     8   ar
    14     8    12    1
    15    12    13   ar
    16    13    14   ar
    17    14    15   ar
    18    15    16    1
    19    15    17   ar
    20    17    18   ar
    21    18    19    1
    22     8     9   ar
    23     9    10    1
    24    10    11    2
    25    10     1   am
    26     9     3   ar
    27    18    12   ar
    28    21    22    1
    29    21    23    1
@<TRIPOS>MOLECULE
*****
 27 29 0 0 0
SMALL
GASTEIGER

@<TRIPOS>ATOM
      1 N          62.0156   90.1322   10.4116 N.am    1  UNL1       -0.2678
      2 C          62.9331   91.2689   10.0706 C.3     1  UNL1        0.1398
      3 C          63.8978   91.4426   11.2059 C.ar    1  UNL1        0.0830
      4 N          65.0272   92.4051   11.4250 N.ar    1  UNL1       -0.2524
      5 C          65.8355   92.3383   12.6868 C.ar    1  UNL1        0.0563
      6 C          66.9650   93.3008   12.9059 C.3     1  UNL1        0.0518
      7 C          65.5144   91.3090   13.7296 C.ar    1  UNL1        0.0072
      8 C          64.3849   90.3465   13.5105 C.ar    1  UNL1        0.0048
      9 C          63.5767   90.4133   12.2487 C.ar    1  UNL1        0.0686
     10 C          62.4134   89.6035   11.7577 C.2     1  UNL1        0.2506
     11 O          61.7623   88.4647   12.4853 O.2     1  UNL1       -0.2699
     12 C          64.0637   89.3171   14.5533 C.ar    1  UNL1        0.0106
     13 C          64.3734   87.8714   14.3004 C.ar    1  UNL1        0.0017
     14 C          64.0522   86.8421   15.3432 C.ar    1  UNL1        0.0114
     15 C          63.4214   87.2585   16.6388 C.ar    1  UNL1        0.0585
     16 CL         63.1003   86.2292   17.6815 Cl      1  UNL1       -0.0822
     17 C          63.1117   88.7043   16.8917 C.ar    1  UNL1        0.0228
     18 C          63.4329   89.7336   15.8489 C.ar    1  UNL1        0.0585
     19 CL         63.1233   91.1793   16.1018 Cl      1  UNL1       -0.0822
     20 C          66.3226   91.2421   14.9914 C.3     1  UNL1        0.0934
     21 N          66.2736   92.3741   15.9743 N.3     1  UNL1       -0.3174
     22 H          66.6832   93.2080   15.5532 H       1  UNL1        0.1192
     23 H          66.8006   92.1216   16.8103 H       1  UNL1        0.1192
     24 C          60.8969   89.6151    9.5566 C.3     1  UNL1        0.1261
     25 C          60.8848   88.1785    9.1255 C.3     1  UNL1        0.1637
     26 C          59.0379   86.8664    7.8537 C.3     1  UNL1        0.1742
     27 O          59.6008   87.4030    9.1364 O.3     1  UNL1       -0.3493
@<TRIPOS>BOND
     1    26    27    1
     2    27    25    1
     3    25    24    1
     4    24     1    1
     5     1     2    1
     6     2     3    1
     7     3     4   ar
     8     4     5   ar
     9     5     6    1
    10     5     7   ar
    11     7    20    1
    12    20    21    1
    13     7     8   ar
    14     8    12    1
    15    12    13   ar
    16    13    14   ar
    17    14    15   ar
    18    15    16    1
    19    15    17   ar
    20    17    18   ar
    21    18    19    1
    22     8     9   ar
    23     9    10    1
    24    10    11    2
    25    10     1   am
    26     9     3   ar
    27    18    12   ar
    28    21    22    1
    29    21    23    1
@<TRIPOS>MOLECULE
*****
 27 29 0 0 0
SMALL
GASTEIGER

@<TRIPOS>ATOM
      1 N          62.6552   90.1866   11.7659 N.am    1  UNL1       -0.2678
      2 C          62.7882   89.9859   13.2465 C.3     1  UNL1        0.1398
      3 C          63.8840   90.8837   13.7395 C.ar    1  UNL1        0.0830
      4 N          64.4565   91.1107   15.1072 N.ar    1  UNL1       -0.2524
      5 C          65.5734   92.0935   15.2991 C.ar    1  UNL1        0.0563
      6 C          66.1459   92.3206   16.6668 C.3     1  UNL1        0.0518
      7 C          66.1178   92.8491   14.1232 C.ar    1  UNL1        0.0072
      8 C          65.5453   92.6220   12.7555 C.ar    1  UNL1        0.0048
      9 C          64.4284   91.6393   12.5636 C.ar    1  UNL1        0.0686
     10 C          63.6690   91.2085   11.3439 C.2     1  UNL1        0.2506
     11 O          63.8853   91.7113    9.9474 O.2     1  UNL1       -0.2699
     12 C          66.0896   93.3776   11.5796 C.ar    1  UNL1        0.0106
     13 C          65.4358   94.6542   11.1405 C.ar    1  UNL1        0.0017
     14 C          65.9802   95.4099    9.9647 C.ar    1  UNL1        0.0114
     15 C          67.1784   94.8889    9.2279 C.ar    1  UNL1        0.0585
     16 CL         67.7228   95.6446    8.0520 Cl      1  UNL1       -0.0822
     17 C          67.8323   93.6123    9.6669 C.ar    1  UNL1        0.0228
     18 C          67.2879   92.8566   10.8428 C.ar    1  UNL1        0.0585
     19 CL         67.9417   91.5800   11.2818 Cl      1  UNL1       -0.0822
     20 C          67.2347   93.8318   14.3151 C.3     1  UNL1        0.0934
     21 N          68.6138   93.3443   14.6470 N.3     1  UNL1       -0.3174
     22 H          68.6080   92.9102   15.5700 H       1  UNL1        0.1192
     23 H          69.2622   94.1317   14.6457 H       1  UNL1        0.1192
     24 C          61.6799   89.4881   10.8655 C.3     1  UNL1        0.1261
     25 C          61.8763   88.0402   10.5265 C.3     1  UNL1        0.1637
     26 C          62.0558   85.5890   11.3688 C.3     1  UNL1        0.1742
     27 O          62.2352   87.0597   11.6034 O.3     1  UNL1       -0.3493
@<TRIPOS>BOND
     1    26    27    1
     2    27    25    1
     3    25    24    1
     4    24     1    1
     5     1     2    1
     6     2     3    1
     7     3     4   ar
     8     4     5   ar
     9     5     6    1
    10     5     7   ar
    11     7    20    1
    12    20    21    1
    13     7     8   ar
    14     8    12    1
    15    12    13   ar
    16    13    14   ar
    17    14    15   ar
    18    15    16    1
    19    15    17   ar
    20    17    18   ar
    21    18    19    1
    22     8     9   ar
    23     9    10    1
    24    10    11    2
    25    10     1   am
    26     9     3   ar
    27    18    12   ar
    28    21    22    1
    29    21    23    1
@<TRIPOS>MOLECULE
*****
 27 29 0 0 0
SMALL
GASTEIGER

@<TRIPOS>ATOM
      1 N          63.9867   90.4424   12.8744 N.am    1  UNL1       -0.2678
      2 C          64.5195   89.6453   14.0280 C.3     1  UNL1        0.1398
      3 C          64.1155   88.2145   13.8287 C.ar    1  UNL1        0.0830
      4 N          64.3590   86.9798   14.6449 N.ar    1  UNL1       -0.2524
      5 C          63.8200   85.6579   14.1843 C.ar    1  UNL1        0.0563
      6 C          64.0635   84.4232   15.0005 C.3     1  UNL1        0.0518
      7 C          63.0374   85.5708   12.9076 C.ar    1  UNL1        0.0072
      8 C          62.7938   86.8056   12.0915 C.ar    1  UNL1        0.0048
      9 C          63.3329   88.1274   12.5520 C.ar    1  UNL1        0.0686
     10 C          63.2533   89.5043   11.9623 C.2     1  UNL1        0.2506
     11 O          62.5617   89.8776   10.6846 O.2     1  UNL1       -0.2699
     12 C          62.0112   86.7184   10.8148 C.ar    1  UNL1        0.0106
     13 C          62.6010   86.0312    9.6190 C.ar    1  UNL1        0.0017
     14 C          61.8184   85.9441    8.3423 C.ar    1  UNL1        0.0114
     15 C          60.4460   86.5442    8.2614 C.ar    1  UNL1        0.0585
     16 CL         59.6634   86.4571    6.9847 Cl      1  UNL1       -0.0822
     17 C          59.8562   87.2314    9.4572 C.ar    1  UNL1        0.0228
     18 C          60.6388   87.3186   10.7339 C.ar    1  UNL1        0.0585
     19 CL         60.0491   88.0058   11.9297 Cl      1  UNL1       -0.0822
     20 C          62.4983   84.2489   12.4471 C.3     1  UNL1        0.0934
     21 N          63.3882   83.2914   11.7114 N.3     1  UNL1       -0.3174
     22 H          63.6485   83.6928   10.8106 H       1  UNL1        0.1192
     23 H          62.8920   82.4129   11.5615 H       1  UNL1        0.1192
     24 C          64.1573   91.9185   12.6691 C.3     1  UNL1        0.1261
     25 C          65.4132   92.4485   12.0433 C.3     1  UNL1        0.1637
     26 C          67.4478   91.9520   13.5808 C.3     1  UNL1        0.1742
     27 O          66.5354   92.9363   12.9108 O.3     1  UNL1       -0.3493
@<TRIPOS>BOND
     1    26    27    1
     2    27    25    1
     3    25    24    1
     4    24     1    1
     5     1     2    1
     6     2     3    1
     7     3     4   ar
     8     4     5   ar
     9     5     6    1
    10     5     7   ar
    11     7    20    1
    12    20    21    1
    13     7     8   ar
    14     8    12    1
    15    12    13   ar
    16    13    14   ar
    17    14    15   ar
    18    15    16    1
    19    15    17   ar
    20    17    18   ar
    21    18    19    1
    22     8     9   ar
    23     9    10    1
    24    10    11    2
    25    10     1   am
    26     9     3   ar
    27    18    12   ar
    28    21    22    1
    29    21    23    1
@<TRIPOS>MOLECULE
*****
 27 29 0 0 0
SMALL
GASTEIGER

@<TRIPOS>ATOM
      1 N          63.7043   85.2906   13.5115 N.am    1  UNL1       -0.2678
      2 C          62.8224   85.2200   12.3002 C.3     1  UNL1        0.1398
      3 C          62.5737   86.6210   11.8255 C.ar    1  UNL1        0.0830
      4 N          61.7782   87.1649   10.6760 N.ar    1  UNL1       -0.2524
      5 C          61.7110   88.6454   10.4444 C.ar    1  UNL1        0.0563
      6 C          60.9155   89.1894    9.2950 C.3     1  UNL1        0.0518
      7 C          62.4392   89.5820   11.3623 C.ar    1  UNL1        0.0072
      8 C          63.2347   89.0380   12.5119 C.ar    1  UNL1        0.0048
      9 C          63.3019   87.5575   12.7434 C.ar    1  UNL1        0.0686
     10 C          64.0007   86.7353   13.7854 C.2     1  UNL1        0.2506
     11 O          64.8472   87.2649   14.9048 O.2     1  UNL1       -0.2699
     12 C          63.9629   89.9745   13.4298 C.ar    1  UNL1        0.0106
     13 C          65.1885   90.6936   12.9494 C.ar    1  UNL1        0.0017
     14 C          65.9167   91.6302   13.8673 C.ar    1  UNL1        0.0114
     15 C          65.4194   91.8476   15.2656 C.ar    1  UNL1        0.0585
     16 CL         66.1476   92.7842   16.1835 Cl      1  UNL1       -0.0822
     17 C          64.1937   91.1286   15.7461 C.ar    1  UNL1        0.0228
     18 C          63.4655   90.1920   14.8282 C.ar    1  UNL1        0.0585
     19 CL         62.2399   89.4729   15.3085 Cl      1  UNL1       -0.0822
     20 C          62.3720   91.0624   11.1308 C.3     1  UNL1        0.0934
     21 N          63.1636   91.6843   10.0189 N.3     1  UNL1       -0.3174
     22 H          64.1598   91.5873   10.2153 H       1  UNL1        0.1192
     23 H          62.9265   92.6736    9.9446 H       1  UNL1        0.1192
     24 C          64.2024   84.1218   14.3089 C.3     1  UNL1        0.1261
     25 C          63.2299   83.2388   15.0329 C.3     1  UNL1        0.1637
     26 C          61.6267   81.3856   14.1694 C.3     1  UNL1        0.1742
     27 O          63.0030   81.8316   14.5656 O.3     1  UNL1       -0.3493
@<TRIPOS>BOND
     1    26    27    1
     2    27    25    1
     3    25    24    1
     4    24     1    1
     5     1     2    1
     6     2     3    1
     7     3     4   ar
     8     4     5   ar
     9     5     6    1
    10     5     7   ar
    11     7    20    1
    12    20    21    1
    13     7     8   ar
    14     8    12    1
    15    12    13   ar
    16    13    14   ar
    17    14    15   ar
    18    15    16    1
    19    15    17   ar
    20    17    18   ar
    21    18    19    1
    22     8     9   ar
    23     9    10    1
    24    10    11    2
    25    10     1   am
    26     9     3   ar
    27    18    12   ar
    28    21    22    1
    29    21    23    1
@<TRIPOS>MOLECULE
*****
 27 29 0 0 0
SMALL
GASTEIGER

@<TRIPOS>ATOM
      1 N          64.1669   88.8916   13.8247 N.am    1  UNL1       -0.2678
      2 C          64.6036   87.8053   14.7624 C.3     1  UNL1        0.1398
      3 C          64.1156   86.4967   14.2152 C.ar    1  UNL1        0.0830
      4 N          64.2481   85.0883   14.7139 N.ar    1  UNL1       -0.2524
      5 C          63.6424   83.9573   13.9367 C.ar    1  UNL1        0.0563
      6 C          63.7749   82.5489   14.4354 C.3     1  UNL1        0.0518
      7 C          62.9042   84.2348   12.6608 C.ar    1  UNL1        0.0072
      8 C          62.7717   85.6433   12.1620 C.ar    1  UNL1        0.0048
      9 C          63.3774   86.7742   12.9393 C.ar    1  UNL1        0.0686
     10 C          63.4091   88.2543   12.6979 C.2     1  UNL1        0.2506
     11 O          62.7914   88.9713   11.5341 O.2     1  UNL1       -0.2699
     12 C          62.0335   85.9208   10.8861 C.ar    1  UNL1        0.0106
     13 C          60.7526   86.7007   10.9151 C.ar    1  UNL1        0.0017
     14 C          60.0143   86.9782    9.6392 C.ar    1  UNL1        0.0114
     15 C          60.5570   86.4758    8.3342 C.ar    1  UNL1        0.0585
     16 CL         59.8188   86.7533    7.0583 Cl      1  UNL1       -0.0822
     17 C          61.8380   85.6958    8.3052 C.ar    1  UNL1        0.0228
     18 C          62.5762   85.4183    9.5811 C.ar    1  UNL1        0.0585
     19 CL         63.8571   84.6383    9.5521 Cl      1  UNL1       -0.0822
     20 C          62.2985   83.1039   11.8835 C.3     1  UNL1        0.0934
     21 N          63.1765   82.0264   11.3197 N.3     1  UNL1       -0.3174
     22 H          63.7819   82.4226   10.6008 H       1  UNL1        0.1192
     23 H          62.5962   81.2945   10.9100 H       1  UNL1        0.1192
     24 C          64.4401   90.3577   13.9855 C.3     1  UNL1        0.1261
     25 C          64.3460   90.9940   15.3405 C.3     1  UNL1        0.1637
     26 C          66.4123   92.5268   15.7024 C.3     1  UNL1        0.1742
     27 O          64.9277   92.3572   15.5711 O.3     1  UNL1       -0.3493
@<TRIPOS>BOND
     1    26    27    1
     2    27    25    1
     3    25    24    1
     4    24     1    1
     5     1     2    1
     6     2     3    1
     7     3     4   ar
     8     4     5   ar
     9     5     6    1
    10     5     7   ar
    11     7    20    1
    12    20    21    1
    13     7     8   ar
    14     8    12    1
    15    12    13   ar
    16    13    14   ar
    17    14    15   ar
    18    15    16    1
    19    15    17   ar
    20    17    18   ar
    21    18    19    1
    22     8     9   ar
    23     9    10    1
    24    10    11    2
    25    10     1   am
    26     9     3   ar
    27    18    12   ar
    28    21    22    1
    29    21    23    1
@<TRIPOS>MOLECULE
*****
 27 29 0 0 0
SMALL
GASTEIGER

@<TRIPOS>ATOM
      1 N          63.3929   83.0457   13.4483 N.am    1  UNL1       -0.2678
      2 C          64.1221   83.9397   14.4069 C.3     1  UNL1        0.1398
      3 C          63.9263   85.3577   13.9587 C.ar    1  UNL1        0.0830
      4 N          64.4124   86.6627   14.5162 N.ar    1  UNL1       -0.2524
      5 C          64.0483   87.9502   13.8379 C.ar    1  UNL1        0.0563
      6 C          64.5343   89.2551   14.3953 C.3     1  UNL1        0.0518
      7 C          63.1981   87.9325   12.6022 C.ar    1  UNL1        0.0072
      8 C          62.7121   86.6275   12.0448 C.ar    1  UNL1        0.0048
      9 C          63.0762   85.3401   12.7231 C.ar    1  UNL1        0.0686
     10 C          62.7465   83.9112   12.4076 C.2     1  UNL1        0.2506
     11 O          61.9162   83.4319   11.2539 O.2     1  UNL1       -0.2699
     12 C          61.8619   86.6099   10.8091 C.ar    1  UNL1        0.0106
     13 C          60.4873   87.2095   10.8359 C.ar    1  UNL1        0.0017
     14 C          59.6371   87.1919    9.6002 C.ar    1  UNL1        0.0114
     15 C          60.1616   86.5746    8.3377 C.ar    1  UNL1        0.0585
     16 CL         59.3114   86.5570    7.1020 Cl      1  UNL1       -0.0822
     17 C          61.5363   85.9749    8.3109 C.ar    1  UNL1        0.0228
     18 C          62.3864   85.9925    9.5466 C.ar    1  UNL1        0.0585
     19 CL         63.7611   85.3928    9.5198 Cl      1  UNL1       -0.0822
     20 C          62.8340   89.2199   11.9240 C.3     1  UNL1        0.0934
     21 N          61.6923   90.0435   12.4417 N.3     1  UNL1       -0.3174
     22 H          60.8191   89.5314   12.3159 H       1  UNL1        0.1192
     23 H          61.6474   90.9235   11.9278 H       1  UNL1        0.1192
     24 C          63.3226   81.5489   13.5180 C.3     1  UNL1        0.1261
     25 C          62.0059   80.8512   13.3462 C.3     1  UNL1        0.1637
     26 C          59.5904   80.4200   14.2002 C.3     1  UNL1        0.1742
     27 O          61.0000   80.8630   14.4588 O.3     1  UNL1       -0.3493
@<TRIPOS>BOND
     1    26    27    1
     2    27    25    1
     3    25    24    1
     4    24     1    1
     5     1     2    1
     6     2     3    1
     7     3     4   ar
     8     4     5   ar
     9     5     6    1
    10     5     7   ar
    11     7    20    1
    12    20    21    1
    13     7     8   ar
    14     8    12    1
    15    12    13   ar
    16    13    14   ar
    17    14    15   ar
    18    15    16    1
    19    15    17   ar
    20    17    18   ar
    21    18    19    1
    22     8     9   ar
    23     9    10    1
    24    10    11    2
    25    10     1   am
    26     9     3   ar
    27    18    12   ar
    28    21    22    1
    29    21    23    1
@<TRIPOS>MOLECULE
*****
 27 29 0 0 0
SMALL
GASTEIGER

@<TRIPOS>ATOM
      1 N          62.3649   86.8430   10.1067 N.am    1  UNL1       -0.2678
      2 C          62.5594   85.5662    9.3437 C.3     1  UNL1        0.1398
      3 C          62.7964   84.4654   10.3347 C.ar    1  UNL1        0.0830
      4 N          63.0497   82.9971   10.1623 N.ar    1  UNL1       -0.2524
      5 C          63.2551   82.1251   11.3654 C.ar    1  UNL1        0.0563
      6 C          63.5083   80.6567   11.1930 C.3     1  UNL1        0.0518
      7 C          63.2072   82.7215   12.7409 C.ar    1  UNL1        0.0072
      8 C          62.9539   84.1899   12.9133 C.ar    1  UNL1        0.0048
      9 C          62.7485   85.0618   11.7102 C.ar    1  UNL1        0.0686
     10 C          62.4818   86.5312   11.5693 C.2     1  UNL1        0.2506
     11 O          62.3545   87.5159   12.6936 O.2     1  UNL1       -0.2699
     12 C          62.9060   84.7863   14.2888 C.ar    1  UNL1        0.0106
     13 C          61.6032   84.8622   15.0284 C.ar    1  UNL1        0.0017
     14 C          61.5553   85.4586   16.4039 C.ar    1  UNL1        0.0114
     15 C          62.8101   85.9791   17.0398 C.ar    1  UNL1        0.0585
     16 CL         62.7622   86.5755   18.4153 Cl      1  UNL1       -0.0822
     17 C          64.1130   85.9032   16.3002 C.ar    1  UNL1        0.0228
     18 C          64.1609   85.3068   14.9247 C.ar    1  UNL1        0.0585
     19 CL         65.4637   85.2308   14.1851 Cl      1  UNL1       -0.0822
     20 C          63.4125   81.8495   13.9440 C.3     1  UNL1        0.0934
     21 N          62.2455   81.1398   14.5639 N.3     1  UNL1       -0.3174
     22 H          61.6009   81.8252   14.9578 H       1  UNL1        0.1192
     23 H          62.5777   80.5210   15.3036 H       1  UNL1        0.1192
     24 C          62.1001   88.1942    9.5116 C.3     1  UNL1        0.1261
     25 C          60.6892   88.6622    9.3117 C.3     1  UNL1        0.1637
     26 C          59.2035   87.1267    7.8333 C.3     1  UNL1        0.1742
     27 O          59.5784   87.6623    9.1834 O.3     1  UNL1       -0.3493
@<TRIPOS>BOND
     1    26    27    1
     2    27    25    1
     3    25    24    1
     4    24     1    1
     5     1     2    1
     6     2     3    1
     7     3     4   ar
     8     4     5   ar
     9     5     6    1
    10     5     7   ar
    11     7    20    1
    12    20    21    1
    13     7     8   ar
    14     8    12    1
    15    12    13   ar
    16    13    14   ar
    17    14    15   ar
    18    15    16    1
    19    15    17   ar
    20    17    18   ar
    21    18    19    1
    22     8     9   ar
    23     9    10    1
    24    10    11    2
    25    10     1   am
    26     9     3   ar
    27    18    12   ar
    28    21    22    1
    29    21    23    1
