@<TRIPOS>MOLECULE
*****
 30 33 0 0 0
SMALL
GASTEIGER

@<TRIPOS>ATOM
      1 C          66.2870   92.2284   13.4596 C.ar    1  UNL1        0.1427
      2 C          65.8085   91.1061   14.3322 C.ar    1  UNL1        0.0371
      3 C          64.5978   90.3132   13.9377 C.ar    1  UNL1        0.0045
      4 C          63.8657   90.6426   12.6707 C.ar    1  UNL1        0.0004
      5 C          64.3442   91.7649   11.7981 C.ar    1  UNL1        0.0076
      6 C          65.5548   92.5578   12.1926 C.ar    1  UNL1        0.0870
      7 C          64.1193   89.1908   14.8104 C.ar    1  UNL1        0.0193
      8 C          63.5192   89.4879   16.1527 C.ar    1  UNL1        0.0988
      9 N          63.0407   88.3657   17.0253 N.ar    1  UNL1       -0.2423
     10 C          63.1623   86.9462   16.5557 C.ar    1  UNL1        0.0989
     11 C          63.7623   86.6491   15.2134 C.ar    1  UNL1        0.0222
     12 C          64.2408   87.7715   14.3408 C.ar    1  UNL1        0.0032
     13 C          63.8839   85.2298   14.7438 C.ar    1  UNL1        0.0411
     14 C          65.1491   84.5489   14.3130 C.ar    1  UNL1        0.1217
     15 N          64.8088   83.1404   13.9255 N.ar    1  UNL1       -0.1676
     16 N          63.3331   82.9507   14.1168 N.ar    1  UNL1       -0.2463
     17 C          62.7615   84.2421   14.6225 C.ar    1  UNL1        0.0968
     18 C          62.5641   81.6909   13.8493 C.3     1  UNL1        0.1641
     19 C          61.2109   81.1720   14.2359 C.3     1  UNL1        0.1690
     20 O          61.4765   79.9093   13.4709 O.3     1  UNL1       -0.3495
     21 C          62.8297   80.4283   13.0843 C.3     1  UNL1        0.1690
     22 C          66.0334   93.6801   11.3200 C.2     1  UNL1        0.2457
     23 N          66.0732   95.0811   11.8544 N.am    1  UNL1       -0.3252
     24 O          66.4720   93.4014    9.9129 O.2     1  UNL1       -0.2703
     25 H          65.7853   95.2640   12.7780 H       1  UNL1        0.1453
     26 H          66.3872   95.8177   11.2817 H       1  UNL1        0.1453
     27 O          67.4977   93.0213   13.8541 O.3     1  UNL1       -0.4790
     28 C          66.8194   92.8724   16.3576 C.3     1  UNL1        0.0472
     29 C          67.8343   93.2046   15.3042 C.3     1  UNL1        0.1661
     30 C          69.1859   93.7203   15.7011 C.3     1  UNL1        0.0472
@<TRIPOS>BOND
     1    28    29    1
     2    29    30    1
     3    29    27    1
     4    27     1    1
     5     1     2   ar
     6     2     3   ar
     7     3     7    1
     8     7     8   ar
     9     8     9   ar
    10     9    10   ar
    11    10    11   ar
    12    11    13    1
    13    13    14   ar
    14    14    15   ar
    15    15    16   ar
    16    16    18    1
    17    18    19    1
    18    19    20    1
    19    20    21    1
    20    16    17   ar
    21    11    12   ar
    22     3     4   ar
    23     4     5   ar
    24     5     6   ar
    25     6    22    1
    26    22    23   am
    27    22    24    2
    28     6     1   ar
    29    12     7   ar
    30    17    13   ar
    31    21    18    1
    32    23    25    1
    33    23    26    1
@<TRIPOS>MOLECULE
*****
 30 33 0 0 0
SMALL
GASTEIGER

@<TRIPOS>ATOM
      1 C          63.2642   85.1793   12.6362 C.ar    1  UNL1        0.1427
      2 C          63.2096   86.5649   13.2078 C.ar    1  UNL1        0.0371
      3 C          64.1001   86.9384   14.3557 C.ar    1  UNL1        0.0045
      4 C          65.0452   85.9261   14.9319 C.ar    1  UNL1        0.0004
      5 C          65.0998   84.5404   14.3602 C.ar    1  UNL1        0.0076
      6 C          64.2092   84.1670   13.2124 C.ar    1  UNL1        0.0870
      7 C          64.0456   88.3241   14.9273 C.ar    1  UNL1        0.0193
      8 C          63.2701   88.5870   16.1841 C.ar    1  UNL1        0.0988
      9 N          63.2155   89.9727   16.7558 N.ar    1  UNL1       -0.2423
     10 C          63.9363   91.0956   16.0706 C.ar    1  UNL1        0.0989
     11 C          64.7118   90.8328   14.8138 C.ar    1  UNL1        0.0222
     12 C          64.7664   89.4470   14.2422 C.ar    1  UNL1        0.0032
     13 C          65.4327   91.9557   14.1286 C.ar    1  UNL1        0.0411
     14 C          66.3817   92.9197   14.7768 C.ar    1  UNL1        0.1217
     15 N          66.8666   93.8715   13.7237 N.ar    1  UNL1       -0.1676
     16 N          66.2173   93.4957   12.4248 N.ar    1  UNL1       -0.2463
     17 C          65.3311   92.3116   12.6751 C.ar    1  UNL1        0.0968
     18 C          66.4189   94.1832   11.1069 C.3     1  UNL1        0.1641
     19 C          66.3693   95.6059   10.6343 C.3     1  UNL1        0.1690
     20 O          66.7040   95.1555    9.2432 O.3     1  UNL1       -0.3495
     21 C          66.7536   93.7328    9.7159 C.3     1  UNL1        0.1690
     22 C          64.2638   82.7812   12.6407 C.2     1  UNL1        0.2457
     23 N          64.6744   82.5745   11.2129 N.am    1  UNL1       -0.3252
     24 O          63.9079   81.6021   13.4969 O.2     1  UNL1       -0.2703
     25 H          64.9081   83.3484   10.6510 H       1  UNL1        0.1453
     26 H          64.7103   81.6650   10.8377 H       1  UNL1        0.1453
     27 O          62.3736   84.8058   11.4883 O.3     1  UNL1       -0.4790
     28 C          61.7489   86.9289   10.1273 C.3     1  UNL1        0.0472
     29 C          62.4251   85.5926   10.2123 C.3     1  UNL1        0.1661
     30 C          63.1529   85.0432    9.0212 C.3     1  UNL1        0.0472
@<TRIPOS>BOND
     1    28    29    1
     2    29    30    1
     3    29    27    1
     4    27     1    1
     5     1     2   ar
     6     2     3   ar
     7     3     7    1
     8     7     8   ar
     9     8     9   ar
    10     9    10   ar
    11    10    11   ar
    12    11    13    1
    13    13    14   ar
    14    14    15   ar
    15    15    16   ar
    16    16    18    1
    17    18    19    1
    18    19    20    1
    19    20    21    1
    20    16    17   ar
    21    11    12   ar
    22     3     4   ar
    23     4     5   ar
    24     5     6   ar
    25     6    22    1
    26    22    23   am
    27    22    24    2
    28     6     1   ar
    29    12     7   ar
    30    17    13   ar
    31    21    18    1
    32    23    25    1
    33    23    26    1
@<TRIPOS>MOLECULE
*****
 30 33 0 0 0
SMALL
GASTEIGER

@<TRIPOS>ATOM
      1 C          65.2296   92.5729   11.9453 C.ar    1  UNL1        0.1427
      2 C          64.2242   91.5766   11.4491 C.ar    1  UNL1        0.0371
      3 C          63.7617   90.4672   12.3466 C.ar    1  UNL1        0.0045
      4 C          64.3047   90.3542   13.7402 C.ar    1  UNL1        0.0004
      5 C          65.3101   91.3506   14.2364 C.ar    1  UNL1        0.0076
      6 C          65.7726   92.4599   13.3389 C.ar    1  UNL1        0.0870
      7 C          62.7561   89.4708   11.8503 C.ar    1  UNL1        0.0193
      8 C          61.4363   89.9406   11.3143 C.ar    1  UNL1        0.0988
      9 N          60.4308   88.9444   10.8181 N.ar    1  UNL1       -0.2423
     10 C          60.7451   87.4781   10.8578 C.ar    1  UNL1        0.0989
     11 C          62.0650   87.0083   11.3937 C.ar    1  UNL1        0.0222
     12 C          63.0705   88.0047   11.8900 C.ar    1  UNL1        0.0032
     13 C          62.3793   85.5422   11.4335 C.ar    1  UNL1        0.0411
     14 C          62.8408   84.7077   10.2756 C.ar    1  UNL1        0.1217
     15 N          63.0341   83.3029   10.7645 N.ar    1  UNL1       -0.1676
     16 N          62.6920   83.2692   12.2246 N.ar    1  UNL1       -0.2463
     17 C          62.2874   84.6531   12.6380 C.ar    1  UNL1        0.0968
     18 C          62.7453   82.0632   13.1150 C.3     1  UNL1        0.1641
     19 C          61.7451   81.3085   13.9397 C.3     1  UNL1        0.1690
     20 O          62.8207   80.3576   14.3742 O.3     1  UNL1       -0.3495
     21 C          63.8210   81.1122   13.5495 C.3     1  UNL1        0.1690
     22 C          66.7782   93.4563   13.8352 C.2     1  UNL1        0.2457
     23 N          68.0809   92.9845   14.4099 N.am    1  UNL1       -0.3252
     24 O          66.4809   94.9244   13.7568 O.2     1  UNL1       -0.2703
     25 H          68.2760   92.0209   14.4613 H       1  UNL1        0.1453
     26 H          68.7408   93.6384   14.7356 H       1  UNL1        0.1453
     27 O          65.6921   93.6823   11.0478 O.3     1  UNL1       -0.4790
     28 C          67.2380   94.5268    9.1381 C.3     1  UNL1        0.0472
     29 C          66.8592   93.4676   10.1304 C.3     1  UNL1        0.1661
     30 C          67.6477   92.1936   10.2052 C.3     1  UNL1        0.0472
@<TRIPOS>BOND
     1    28    29    1
     2    29    30    1
     3    29    27    1
     4    27     1    1
     5     1     2   ar
     6     2     3   ar
     7     3     7    1
     8     7     8   ar
     9     8     9   ar
    10     9    10   ar
    11    10    11   ar
    12    11    13    1
    13    13    14   ar
    14    14    15   ar
    15    15    16   ar
    16    16    18    1
    17    18    19    1
    18    19    20    1
    19    20    21    1
    20    16    17   ar
    21    11    12   ar
    22     3     4   ar
    23     4     5   ar
    24     5     6   ar
    25     6    22    1
    26    22    23   am
    27    22    24    2
    28     6     1   ar
    29    12     7   ar
    30    17    13   ar
    31    21    18    1
    32    23    25    1
    33    23    26    1
@<TRIPOS>MOLECULE
*****
 30 33 0 0 0
SMALL
GASTEIGER

@<TRIPOS>ATOM
      1 C          63.9118   84.7706   13.7751 C.ar    1  UNL1        0.1427
      2 C          64.1179   86.2368   14.0149 C.ar    1  UNL1        0.0371
      3 C          63.5667   86.8790   15.2533 C.ar    1  UNL1        0.0045
      4 C          62.8092   86.0550   16.2519 C.ar    1  UNL1        0.0004
      5 C          62.6031   84.5888   16.0120 C.ar    1  UNL1        0.0076
      6 C          63.1543   83.9465   14.7736 C.ar    1  UNL1        0.0870
      7 C          63.7729   88.3454   15.4931 C.ar    1  UNL1        0.0193
      8 C          63.0849   89.0215   16.6419 C.ar    1  UNL1        0.0988
      9 N          63.2911   90.4877   16.8817 N.ar    1  UNL1       -0.2423
     10 C          64.1852   91.2779   15.9728 C.ar    1  UNL1        0.0989
     11 C          64.8732   90.6019   14.8240 C.ar    1  UNL1        0.0222
     12 C          64.6670   89.1355   14.5842 C.ar    1  UNL1        0.0032
     13 C          65.7673   91.3920   13.9151 C.ar    1  UNL1        0.0411
     14 C          67.2543   91.5368   14.0486 C.ar    1  UNL1        0.1217
     15 N          67.7374   92.4104   12.9291 N.ar    1  UNL1       -0.1676
     16 N          66.5489   92.8056   12.1036 N.ar    1  UNL1       -0.2463
     17 C          65.3313   92.1762   12.7130 C.ar    1  UNL1        0.0968
     18 C          66.5737   93.6772   10.8831 C.3     1  UNL1        0.1641
     19 C          67.3030   93.6468    9.5727 C.3     1  UNL1        0.1690
     20 O          66.6087   94.9098    9.1570 O.3     1  UNL1       -0.3495
     21 C          65.8794   94.9402   10.4674 C.3     1  UNL1        0.1690
     22 C          62.9481   82.4802   14.5338 C.2     1  UNL1        0.2457
     23 N          64.1265   81.5906   14.2691 N.am    1  UNL1       -0.3252
     24 O          61.5637   81.9036   14.5587 O.2     1  UNL1       -0.2703
     25 H          65.0352   81.9691   14.2528 H       1  UNL1        0.1453
     26 H          63.9912   80.6282   14.1117 H       1  UNL1        0.1453
     27 O          64.4630   84.1284   12.5366 O.3     1  UNL1       -0.4790
     28 C          63.9663   82.9816   10.2589 C.3     1  UNL1        0.0472
     29 C          63.5951   83.9710   11.3235 C.3     1  UNL1        0.1661
     30 C          62.3558   84.8030   11.1748 C.3     1  UNL1        0.0472
@<TRIPOS>BOND
     1    28    29    1
     2    29    30    1
     3    29    27    1
     4    27     1    1
     5     1     2   ar
     6     2     3   ar
     7     3     7    1
     8     7     8   ar
     9     8     9   ar
    10     9    10   ar
    11    10    11   ar
    12    11    13    1
    13    13    14   ar
    14    14    15   ar
    15    15    16   ar
    16    16    18    1
    17    18    19    1
    18    19    20    1
    19    20    21    1
    20    16    17   ar
    21    11    12   ar
    22     3     4   ar
    23     4     5   ar
    24     5     6   ar
    25     6    22    1
    26    22    23   am
    27    22    24    2
    28     6     1   ar
    29    12     7   ar
    30    17    13   ar
    31    21    18    1
    32    23    25    1
    33    23    26    1
@<TRIPOS>MOLECULE
*****
 30 33 0 0 0
SMALL
GASTEIGER

@<TRIPOS>ATOM
      1 C          61.5398   86.6300   10.0922 C.ar    1  UNL1        0.1427
      2 C          62.3903   87.4164   11.0451 C.ar    1  UNL1        0.0371
      3 C          62.3544   88.9158   11.0203 C.ar    1  UNL1        0.0045
      4 C          61.4681   89.6287   10.0425 C.ar    1  UNL1        0.0004
      5 C          60.6176   88.8423    9.0895 C.ar    1  UNL1        0.0076
      6 C          60.6535   87.3429    9.1144 C.ar    1  UNL1        0.0870
      7 C          63.2049   89.7023   11.9733 C.ar    1  UNL1        0.0193
      8 C          63.3641   89.2415   13.3919 C.ar    1  UNL1        0.0988
      9 N          64.2146   90.0279   14.3449 N.ar    1  UNL1       -0.2423
     10 C          64.9059   91.2751   13.8793 C.ar    1  UNL1        0.0989
     11 C          64.7467   91.7358   12.4608 C.ar    1  UNL1        0.0222
     12 C          63.8962   90.9493   11.5077 C.ar    1  UNL1        0.0032
     13 C          65.4380   92.9829   11.9952 C.ar    1  UNL1        0.0411
     14 C          66.2383   93.9193   12.8511 C.ar    1  UNL1        0.1217
     15 N          66.7453   95.0277   11.9769 N.ar    1  UNL1       -0.1676
     16 N          66.2583   94.7763   10.5805 N.ar    1  UNL1       -0.2463
     17 C          65.4504   93.5126   10.5919 C.ar    1  UNL1        0.0968
     18 C          66.5314   95.6375    9.3831 C.3     1  UNL1        0.1641
     19 C          65.8300   96.7859    8.7204 C.3     1  UNL1        0.1690
     20 O          66.9175   96.8554    7.6897 O.3     1  UNL1       -0.3495
     21 C          67.6189   95.7070    8.3524 C.3     1  UNL1        0.1690
     22 C          59.8029   86.5565    8.1614 C.2     1  UNL1        0.2457
     23 N          60.4166   85.4680    7.3315 N.am    1  UNL1       -0.3252
     24 O          58.3389   86.8585    8.0383 O.2     1  UNL1       -0.2703
     25 H          61.3775   85.2698    7.4123 H       1  UNL1        0.1453
     26 H          59.8584   84.9518    6.7060 H       1  UNL1        0.1453
     27 O          61.5756   85.1306   10.1170 O.3     1  UNL1       -0.4790
     28 C          62.6700   84.3961   12.3560 C.3     1  UNL1        0.0472
     29 C          62.6696   84.4187   10.8561 C.3     1  UNL1        0.1661
     30 C          63.7634   83.7294   10.0954 C.3     1  UNL1        0.0472
@<TRIPOS>BOND
     1    28    29    1
     2    29    30    1
     3    29    27    1
     4    27     1    1
     5     1     2   ar
     6     2     3   ar
     7     3     7    1
     8     7     8   ar
     9     8     9   ar
    10     9    10   ar
    11    10    11   ar
    12    11    13    1
    13    13    14   ar
    14    14    15   ar
    15    15    16   ar
    16    16    18    1
    17    18    19    1
    18    19    20    1
    19    20    21    1
    20    16    17   ar
    21    11    12   ar
    22     3     4   ar
    23     4     5   ar
    24     5     6   ar
    25     6    22    1
    26    22    23   am
    27    22    24    2
    28     6     1   ar
    29    12     7   ar
    30    17    13   ar
    31    21    18    1
    32    23    25    1
    33    23    26    1
@<TRIPOS>MOLECULE
*****
 30 33 0 0 0
SMALL
GASTEIGER

@<TRIPOS>ATOM
      1 C          63.9247   91.1755   12.1374 C.ar    1  UNL1        0.1427
      2 C          63.5403   90.0007   12.9871 C.ar    1  UNL1        0.0371
      3 C          64.3317   89.6752   14.2191 C.ar    1  UNL1        0.0045
      4 C          65.5075   90.5245   14.6013 C.ar    1  UNL1        0.0004
      5 C          65.8919   91.6993   13.7516 C.ar    1  UNL1        0.0076
      6 C          65.1005   92.0248   12.5196 C.ar    1  UNL1        0.0870
      7 C          63.9472   88.5003   15.0688 C.ar    1  UNL1        0.0193
      8 C          63.5095   88.7123   16.4878 C.ar    1  UNL1        0.0988
      9 N          63.1250   87.5375   17.3375 N.ar    1  UNL1       -0.2423
     10 C          63.1783   86.1507   16.7682 C.ar    1  UNL1        0.0989
     11 C          63.6161   85.9387   15.3493 C.ar    1  UNL1        0.0222
     12 C          64.0005   87.1136   14.4996 C.ar    1  UNL1        0.0032
     13 C          63.6694   84.5520   14.7800 C.ar    1  UNL1        0.0411
     14 C          63.9828   83.2980   15.5411 C.ar    1  UNL1        0.1217
     15 N          63.9258   82.1467   14.5812 N.ar    1  UNL1       -0.1676
     16 N          63.5771   82.6893   13.2269 N.ar    1  UNL1       -0.2463
     17 C          63.4186   84.1758   13.3498 C.ar    1  UNL1        0.0968
     18 C          63.4152   81.8863   11.9703 C.3     1  UNL1        0.1641
     19 C          63.7512   82.1002   10.5241 C.3     1  UNL1        0.1690
     20 O          63.1863   80.7506   10.1933 O.3     1  UNL1       -0.3495
     21 C          62.8504   80.5366   11.6394 C.3     1  UNL1        0.1690
     22 C          65.4849   93.1997   11.6699 C.2     1  UNL1        0.2457
     23 N          65.3162   93.1354   10.1808 N.am    1  UNL1       -0.3252
     24 O          66.0382   94.4386   12.3093 O.2     1  UNL1       -0.2703
     25 H          64.9531   92.3222    9.7612 H       1  UNL1        0.1453
     26 H          65.5685   93.9065    9.6231 H       1  UNL1        0.1453
     27 O          63.1333   91.5010   10.9055 O.3     1  UNL1       -0.4790
     28 C          60.6209   90.8462   10.8107 C.3     1  UNL1        0.0472
     29 C          62.0493   90.5729   10.4434 C.3     1  UNL1        0.1661
     30 C          62.3937   89.3714    9.6140 C.3     1  UNL1        0.0472
@<TRIPOS>BOND
     1    28    29    1
     2    29    30    1
     3    29    27    1
     4    27     1    1
     5     1     2   ar
     6     2     3   ar
     7     3     7    1
     8     7     8   ar
     9     8     9   ar
    10     9    10   ar
    11    10    11   ar
    12    11    13    1
    13    13    14   ar
    14    14    15   ar
    15    15    16   ar
    16    16    18    1
    17    18    19    1
    18    19    20    1
    19    20    21    1
    20    16    17   ar
    21    11    12   ar
    22     3     4   ar
    23     4     5   ar
    24     5     6   ar
    25     6    22    1
    26    22    23   am
    27    22    24    2
    28     6     1   ar
    29    12     7   ar
    30    17    13   ar
    31    21    18    1
    32    23    25    1
    33    23    26    1
@<TRIPOS>MOLECULE
*****
 30 33 0 0 0
SMALL
GASTEIGER

@<TRIPOS>ATOM
      1 C          62.7649   83.4781   12.5519 C.ar    1  UNL1        0.1427
      2 C          62.8107   84.9397   12.2182 C.ar    1  UNL1        0.0371
      3 C          63.2970   85.9269   13.2375 C.ar    1  UNL1        0.0045
      4 C          63.7374   85.4524   14.5906 C.ar    1  UNL1        0.0004
      5 C          63.6916   83.9908   14.9243 C.ar    1  UNL1        0.0076
      6 C          63.2054   83.0036   13.9049 C.ar    1  UNL1        0.0870
      7 C          63.3428   87.3886   12.9037 C.ar    1  UNL1        0.0193
      8 C          62.7059   87.8900   11.6416 C.ar    1  UNL1        0.0988
      9 N          62.7516   89.3516   11.3078 N.ar    1  UNL1       -0.2423
     10 C          63.4343   90.3120   12.2361 C.ar    1  UNL1        0.0989
     11 C          64.0712   89.8106   13.4982 C.ar    1  UNL1        0.0222
     12 C          64.0254   88.3489   13.8320 C.ar    1  UNL1        0.0032
     13 C          64.7539   90.7709   14.4266 C.ar    1  UNL1        0.0411
     14 C          64.1345   91.4334   15.6214 C.ar    1  UNL1        0.1217
     15 N          65.1736   92.3092   16.2563 N.ar    1  UNL1       -0.1676
     16 N          66.4352   92.1880   15.4539 N.ar    1  UNL1       -0.2463
     17 C          66.1757   91.2373   14.3231 C.ar    1  UNL1        0.0968
     18 C          67.7290   92.8937   15.7333 C.3     1  UNL1        0.1641
     19 C          68.1942   94.3185   15.6750 C.3     1  UNL1        0.1690
     20 O          69.5588   93.8916   16.1285 O.3     1  UNL1       -0.3495
     21 C          69.0936   92.4667   16.1868 C.3     1  UNL1        0.1690
     22 C          63.1596   81.5419   14.2387 C.2     1  UNL1        0.2457
     23 N          61.8446   80.8782   14.5222 N.am    1  UNL1       -0.3252
     24 O          64.4287   80.7440   14.2890 O.2     1  UNL1       -0.2703
     25 H          61.0116   81.4019   14.4892 H       1  UNL1        0.1453
     26 H          61.8146   79.9188   14.7413 H       1  UNL1        0.1453
     27 O          62.2786   82.4909   11.5326 O.3     1  UNL1       -0.4790
     28 C          64.4572   82.5494   10.1183 C.3     1  UNL1        0.0472
     29 C          63.2573   81.8059   10.6255 C.3     1  UNL1        0.1661
     30 C          63.0361   80.3771   10.2255 C.3     1  UNL1        0.0472
@<TRIPOS>BOND
     1    28    29    1
     2    29    30    1
     3    29    27    1
     4    27     1    1
     5     1     2   ar
     6     2     3   ar
     7     3     7    1
     8     7     8   ar
     9     8     9   ar
    10     9    10   ar
    11    10    11   ar
    12    11    13    1
    13    13    14   ar
    14    14    15   ar
    15    15    16   ar
    16    16    18    1
    17    18    19    1
    18    19    20    1
    19    20    21    1
    20    16    17   ar
    21    11    12   ar
    22     3     4   ar
    23     4     5   ar
    24     5     6   ar
    25     6    22    1
    26    22    23   am
    27    22    24    2
    28     6     1   ar
    29    12     7   ar
    30    17    13   ar
    31    21    18    1
    32    23    25    1
    33    23    26    1
@<TRIPOS>MOLECULE
*****
 30 33 0 0 0
SMALL
GASTEIGER

@<TRIPOS>ATOM
      1 C          61.6083   93.6220    1.5463 C.ar    1  UNL1        0.1427
      2 C          60.5526   93.0710    2.4584 C.ar    1  UNL1        0.0371
      3 C          60.9080   92.0211    3.4690 C.ar    1  UNL1        0.0045
      4 C          62.3191   91.5222    3.5676 C.ar    1  UNL1        0.0004
      5 C          63.3748   92.0731    2.6556 C.ar    1  UNL1        0.0076
      6 C          63.0194   93.1230    1.6449 C.ar    1  UNL1        0.0870
      7 C          59.8522   91.4702    4.3811 C.ar    1  UNL1        0.0193
      8 C          58.4410   91.9688    4.2821 C.ar    1  UNL1        0.0988
      9 N          57.3852   91.4179    5.1941 N.ar    1  UNL1       -0.2423
     10 C          57.7406   90.3684    6.2052 C.ar    1  UNL1        0.0989
     11 C          59.1519   89.8698    6.3042 C.ar    1  UNL1        0.0222
     12 C          60.2077   90.4207    5.3921 C.ar    1  UNL1        0.0032
     13 C          59.5073   88.8203    7.3152 C.ar    1  UNL1        0.0411
     14 C          58.9434   87.4319    7.3804 C.ar    1  UNL1        0.1217
     15 N          59.5767   86.7284    8.5440 N.ar    1  UNL1       -0.1676
     16 N          60.5320   87.6822    9.1981 N.ar    1  UNL1       -0.2463
     17 C          60.4891   88.9750    8.4387 C.ar    1  UNL1        0.0968
     18 C          61.3811   87.3938   10.4006 C.3     1  UNL1        0.1641
     19 C          62.2604   88.2119   11.2991 C.3     1  UNL1        0.1690
     20 O          62.5819   86.9858   12.1010 O.3     1  UNL1       -0.3495
     21 C          61.7025   86.1676   11.2025 C.3     1  UNL1        0.1690
     22 C          64.0752   93.6739    0.7328 C.2     1  UNL1        0.2457
     23 N          63.7666   93.9083   -0.7163 N.am    1  UNL1       -0.3252
     24 O          65.4395   93.9905    1.2698 O.2     1  UNL1       -0.2703
     25 H          62.8712   93.7005   -1.0687 H       1  UNL1        0.1453
     26 H          64.4596   94.2698   -1.3149 H       1  UNL1        0.1453
     27 O          61.2529   94.6718    0.5356 O.3     1  UNL1       -0.4790
     28 C          60.1845   93.3743   -1.4454 C.3     1  UNL1        0.0472
     29 C          60.1046   94.4505   -0.4036 C.3     1  UNL1        0.1661
     30 C          58.8762   95.3054   -0.3011 C.3     1  UNL1        0.0472
@<TRIPOS>BOND
     1    28    29    1
     2    29    30    1
     3    29    27    1
     4    27     1    1
     5     1     2   ar
     6     2     3   ar
     7     3     7    1
     8     7     8   ar
     9     8     9   ar
    10     9    10   ar
    11    10    11   ar
    12    11    13    1
    13    13    14   ar
    14    14    15   ar
    15    15    16   ar
    16    16    18    1
    17    18    19    1
    18    19    20    1
    19    20    21    1
    20    16    17   ar
    21    11    12   ar
    22     3     4   ar
    23     4     5   ar
    24     5     6   ar
    25     6    22    1
    26    22    23   am
    27    22    24    2
    28     6     1   ar
    29    12     7   ar
    30    17    13   ar
    31    21    18    1
    32    23    25    1
    33    23    26    1
@<TRIPOS>MOLECULE
*****
 30 33 0 0 0
SMALL
GASTEIGER

@<TRIPOS>ATOM
      1 C          62.7382   83.7893   12.5368 C.ar    1  UNL1        0.1427
      2 C          62.4779   85.0800   11.8183 C.ar    1  UNL1        0.0371
      3 C          62.8637   86.3830   12.4534 C.ar    1  UNL1        0.0045
      4 C          63.5099   86.3953   13.8070 C.ar    1  UNL1        0.0004
      5 C          63.7702   85.1046   14.5255 C.ar    1  UNL1        0.0076
      6 C          63.3844   83.8016   13.8904 C.ar    1  UNL1        0.0870
      7 C          62.6034   87.6737   11.7348 C.ar    1  UNL1        0.0193
      8 C          63.2846   88.9325   12.1836 C.ar    1  UNL1        0.0988
      9 N          63.0243   90.2232   11.4651 N.ar    1  UNL1       -0.2423
     10 C          62.0827   90.2552   10.2978 C.ar    1  UNL1        0.0989
     11 C          61.4016   88.9964    9.8490 C.ar    1  UNL1        0.0222
     12 C          61.6619   87.7056   10.5676 C.ar    1  UNL1        0.0032
     13 C          60.4601   89.0283    8.6818 C.ar    1  UNL1        0.0411
     14 C          59.6663   87.8686    8.1573 C.ar    1  UNL1        0.1217
     15 N          58.8627   88.3490    6.9854 N.ar    1  UNL1       -0.1676
     16 N          59.1598   89.8057    6.7856 N.ar    1  UNL1       -0.2463
     17 C          60.1470   90.2255    7.8340 C.ar    1  UNL1        0.0968
     18 C          58.5727   90.6877    5.7238 C.3     1  UNL1        0.1641
     19 C          57.1935   90.9219    5.1824 C.3     1  UNL1        0.1690
     20 O          57.7425   91.9351    4.2222 O.3     1  UNL1       -0.3495
     21 C          59.1216   91.7010    4.7636 C.3     1  UNL1        0.1690
     22 C          63.6447   82.5108   14.6089 C.2     1  UNL1        0.2457
     23 N          62.6554   81.3873   14.5148 N.am    1  UNL1       -0.3252
     24 O          64.8943   82.3437   15.4216 O.2     1  UNL1       -0.2703
     25 H          61.8352   81.4970   13.9814 H       1  UNL1        0.1453
     26 H          62.8262   80.5401   14.9864 H       1  UNL1        0.1453
     27 O          62.3524   82.4863   11.9017 O.3     1  UNL1       -0.4790
     28 C          64.4197   82.6159   10.3335 C.3     1  UNL1        0.0472
     29 C          63.2571   81.8484   10.8895 C.3     1  UNL1        0.1661
     30 C          62.9992   80.4428   10.4333 C.3     1  UNL1        0.0472
@<TRIPOS>BOND
     1    28    29    1
     2    29    30    1
     3    29    27    1
     4    27     1    1
     5     1     2   ar
     6     2     3   ar
     7     3     7    1
     8     7     8   ar
     9     8     9   ar
    10     9    10   ar
    11    10    11   ar
    12    11    13    1
    13    13    14   ar
    14    14    15   ar
    15    15    16   ar
    16    16    18    1
    17    18    19    1
    18    19    20    1
    19    20    21    1
    20    16    17   ar
    21    11    12   ar
    22     3     4   ar
    23     4     5   ar
    24     5     6   ar
    25     6    22    1
    26    22    23   am
    27    22    24    2
    28     6     1   ar
    29    12     7   ar
    30    17    13   ar
    31    21    18    1
    32    23    25    1
    33    23    26    1
