@<TRIPOS>MOLECULE
*****
 27 29 0 0 0
SMALL
GASTEIGER

@<TRIPOS>ATOM
      1 N          63.1996   84.6319   12.3673 N.3     1  UNL1       -0.2713
      2 C          63.8011   84.0308   11.1316 C.3     1  UNL1        0.0749
      3 C          63.3465   84.4882    9.7773 C.3     1  UNL1        0.0485
      4 C          62.2904   85.5467    9.6587 C.3     1  UNL1        0.1096
      5 O          62.5573   85.2812    8.2066 O.3     1  UNL1       -0.3826
      6 C          61.6887   86.1478   10.8943 C.3     1  UNL1        0.0485
      7 C          62.1433   85.6904   12.2486 C.3     1  UNL1        0.0749
      8 H          63.2401   84.5972    8.1232 H       1  UNL1        0.2107
      9 C          61.3269   86.5130    9.0357 C.ar    1  UNL1        0.0018
     10 C          60.3265   86.0300    8.0278 C.ar    1  UNL1       -0.0020
     11 C          59.3630   86.9962    7.4049 C.ar    1  UNL1       -0.0002
     12 C          59.4000   88.4455    7.7899 C.ar    1  UNL1       -0.0000
     13 C          60.4004   88.9285    8.7977 C.ar    1  UNL1       -0.0002
     14 C          61.3639   87.9622    9.4207 C.ar    1  UNL1       -0.0020
     15 C          63.1282   82.8924   14.2958 C.3     1  UNL1        0.0203
     16 C          63.6542   84.1745   13.7216 C.3     1  UNL1        0.0888
     17 C          64.6347   84.9991   14.5016 C.3     1  UNL1        0.1472
     18 O          66.0564   84.5415   14.6404 O.3     1  UNL1       -0.3787
     19 H          66.5527   85.1845   15.1706 H       1  UNL1        0.2108
     20 C          64.1935   86.2814   15.1429 C.ar    1  UNL1        0.0058
     21 C          63.4848   86.2539   16.4646 C.ar    1  UNL1        0.0012
     22 C          63.0436   87.5361   17.1058 C.ar    1  UNL1        0.0364
     23 C          63.3112   88.8458   16.4254 C.ar    1  UNL1        0.1337
     24 O          62.8700   90.1281   17.0667 O.3     1  UNL1       -0.5055
     25 C          64.0199   88.8733   15.1037 C.ar    1  UNL1        0.0364
     26 C          64.4610   87.5911   14.4624 C.ar    1  UNL1        0.0012
     27 H          62.4273   90.1109   17.8923 H       1  UNL1        0.2922
@<TRIPOS>BOND
     1    16    15    1
     2    16    17    1
     3    17    18    1
     4    17    20    1
     5    20    21   ar
     6    21    22   ar
     7    22    23   ar
     8    23    24    1
     9    23    25   ar
    10    25    26   ar
    11    16     1    1
    12     1     2    1
    13     2     3    1
    14     3     4    1
    15     4     5    1
    16     4     9    1
    17     9    10   ar
    18    10    11   ar
    19    11    12   ar
    20    12    13   ar
    21    13    14   ar
    22     4     6    1
    23     6     7    1
    24    26    20   ar
    25     7     1    1
    26    14     9   ar
    27    18    19    1
    28    24    27    1
    29     5     8    1
@<TRIPOS>MOLECULE
*****
 27 29 0 0 0
SMALL
GASTEIGER

@<TRIPOS>ATOM
      1 N          62.6855   87.1374   11.9442 N.3     1  UNL1       -0.2713
      2 C          63.5817   87.1167   13.1468 C.3     1  UNL1        0.0749
      3 C          63.8777   85.8195   13.8394 C.3     1  UNL1        0.0485
      4 C          63.2775   84.5430   13.3293 C.3     1  UNL1        0.1096
      5 O          64.0596   84.0153   14.4955 O.3     1  UNL1       -0.3826
      6 C          62.3813   84.5636   12.1266 C.3     1  UNL1        0.0485
      7 C          62.0853   85.8609   11.4340 C.3     1  UNL1        0.0749
      8 H          64.5157   84.7486   14.9373 H       1  UNL1        0.2107
      9 C          62.9489   83.0832   13.2241 C.ar    1  UNL1        0.0018
     10 C          62.2066   82.3997   14.3340 C.ar    1  UNL1       -0.0020
     11 C          61.8780   80.9399   14.2289 C.ar    1  UNL1       -0.0002
     12 C          62.2917   80.1636   13.0139 C.ar    1  UNL1       -0.0000
     13 C          63.0340   80.8471   11.9040 C.ar    1  UNL1       -0.0002
     14 C          63.3626   82.3069   12.0092 C.ar    1  UNL1       -0.0020
     15 C          62.1842   88.4619    9.7659 C.3     1  UNL1        0.0203
     16 C          62.3895   88.4346   11.2516 C.3     1  UNL1        0.0888
     17 C          62.2989   89.7046   12.0447 C.3     1  UNL1        0.1472
     18 O          61.0541   90.0168   12.8211 O.3     1  UNL1       -0.3787
     19 H          61.1602   90.8682   13.2735 H       1  UNL1        0.2108
     20 C          63.4532   90.6625   12.0613 C.ar    1  UNL1        0.0058
     21 C          63.8125   91.4256   10.8209 C.ar    1  UNL1        0.0012
     22 C          64.9667   92.3834   10.8376 C.ar    1  UNL1        0.0364
     23 C          65.7617   92.5780   12.0946 C.ar    1  UNL1        0.1337
     24 O          66.9160   93.5359   12.1112 O.3     1  UNL1       -0.5055
     25 C          65.4025   91.8149   13.3350 C.ar    1  UNL1        0.0364
     26 C          64.2482   90.8571   13.3183 C.ar    1  UNL1        0.0012
     27 H          67.1404   94.0126   11.3364 H       1  UNL1        0.2922
@<TRIPOS>BOND
     1    16    15    1
     2    16    17    1
     3    17    18    1
     4    17    20    1
     5    20    21   ar
     6    21    22   ar
     7    22    23   ar
     8    23    24    1
     9    23    25   ar
    10    25    26   ar
    11    16     1    1
    12     1     2    1
    13     2     3    1
    14     3     4    1
    15     4     5    1
    16     4     9    1
    17     9    10   ar
    18    10    11   ar
    19    11    12   ar
    20    12    13   ar
    21    13    14   ar
    22     4     6    1
    23     6     7    1
    24    26    20   ar
    25     7     1    1
    26    14     9   ar
    27    18    19    1
    28    24    27    1
    29     5     8    1
@<TRIPOS>MOLECULE
*****
 27 29 0 0 0
SMALL
GASTEIGER

@<TRIPOS>ATOM
      1 N          61.8454   89.5726   11.1339 N.3     1  UNL1       -0.2713
      2 C          62.3592   90.4037    9.9959 C.3     1  UNL1        0.0749
      3 C          63.4929   91.3605   10.2180 C.3     1  UNL1        0.0485
      4 C          64.1128   91.4860   11.5781 C.3     1  UNL1        0.1096
      5 O          64.9420   92.4808   10.8211 O.3     1  UNL1       -0.3826
      6 C          63.5990   90.6548   12.7162 C.3     1  UNL1        0.0485
      7 C          62.4653   89.6981   12.4941 C.3     1  UNL1        0.0749
      8 H          64.6478   92.5106    9.8972 H       1  UNL1        0.2107
      9 C          65.0208   91.9571   12.6753 C.ar    1  UNL1        0.0018
     10 C          65.1959   91.1268   13.9122 C.ar    1  UNL1       -0.0020
     11 C          66.1037   91.5977   15.0094 C.ar    1  UNL1       -0.0002
     12 C          66.8365   92.8992   14.8697 C.ar    1  UNL1       -0.0000
     13 C          66.6614   93.7295   13.6328 C.ar    1  UNL1       -0.0002
     14 C          65.7535   93.2584   12.5356 C.ar    1  UNL1       -0.0020
     15 C          59.5120   88.6528   11.8116 C.3     1  UNL1        0.0203
     16 C          60.7116   88.6159   10.9118 C.3     1  UNL1        0.0888
     17 C          60.7775   87.6222    9.7901 C.3     1  UNL1        0.1472
     18 O          59.9254   87.8108    8.5701 O.3     1  UNL1       -0.3787
     19 H          60.0881   87.0856    7.9468 H       1  UNL1        0.2108
     20 C          61.6956   86.4400    9.8883 C.ar    1  UNL1        0.0058
     21 C          62.4213   85.9508    8.6702 C.ar    1  UNL1        0.0012
     22 C          63.3393   84.7686    8.7684 C.ar    1  UNL1        0.0364
     23 C          63.5315   84.0756   10.0848 C.ar    1  UNL1        0.1337
     24 O          64.4495   82.8933   10.1830 O.3     1  UNL1       -0.5055
     25 C          62.8057   84.5648   11.3029 C.ar    1  UNL1        0.0364
     26 C          61.8878   85.7470   11.2047 C.ar    1  UNL1        0.0012
     27 H          64.9029   82.5878    9.4221 H       1  UNL1        0.2922
@<TRIPOS>BOND
     1    16    15    1
     2    16    17    1
     3    17    18    1
     4    17    20    1
     5    20    21   ar
     6    21    22   ar
     7    22    23   ar
     8    23    24    1
     9    23    25   ar
    10    25    26   ar
    11    16     1    1
    12     1     2    1
    13     2     3    1
    14     3     4    1
    15     4     5    1
    16     4     9    1
    17     9    10   ar
    18    10    11   ar
    19    11    12   ar
    20    12    13   ar
    21    13    14   ar
    22     4     6    1
    23     6     7    1
    24    26    20   ar
    25     7     1    1
    26    14     9   ar
    27    18    19    1
    28    24    27    1
    29     5     8    1
@<TRIPOS>MOLECULE
*****
 27 29 0 0 0
SMALL
GASTEIGER

@<TRIPOS>ATOM
      1 N          63.3536   89.3921   12.9403 N.3     1  UNL1       -0.2713
      2 C          62.9971   90.6394   12.1873 C.3     1  UNL1        0.0749
      3 C          62.2524   90.5446   10.8886 C.3     1  UNL1        0.0485
      4 C          61.8642   89.2024   10.3430 C.3     1  UNL1        0.1096
      5 O          61.3056   90.0907    9.2712 O.3     1  UNL1       -0.3826
      6 C          62.2207   87.9550   11.0960 C.3     1  UNL1        0.0485
      7 C          62.9654   88.0498   12.3947 C.3     1  UNL1        0.0749
      8 H          61.4855   91.0177    9.4932 H       1  UNL1        0.2107
      9 C          61.2820   88.1686    9.4251 C.ar    1  UNL1        0.0018
     10 C          59.9646   88.4190    8.7531 C.ar    1  UNL1       -0.0020
     11 C          59.3824   87.3854    7.8352 C.ar    1  UNL1       -0.0002
     12 C          60.1177   86.1012    7.5894 C.ar    1  UNL1       -0.0000
     13 C          61.4351   85.8508    8.2614 C.ar    1  UNL1       -0.0002
     14 C          62.0173   86.8845    9.1793 C.ar    1  UNL1       -0.0020
     15 C          64.6628   88.2498   14.8719 C.3     1  UNL1        0.0203
     16 C          64.0982   89.4870   14.2389 C.3     1  UNL1        0.0888
     17 C          64.2784   90.8190   14.9046 C.3     1  UNL1        0.1472
     18 O          63.1093   91.4959   15.5566 O.3     1  UNL1       -0.3787
     19 H          63.3956   92.3413   15.9362 H       1  UNL1        0.2108
     20 C          65.6277   91.4743   14.9184 C.ar    1  UNL1        0.0058
     21 C          66.0497   92.2974   16.0991 C.ar    1  UNL1        0.0012
     22 C          67.3989   92.9526   16.1128 C.ar    1  UNL1        0.0364
     23 C          68.3261   92.7847   14.9458 C.ar    1  UNL1        0.1337
     24 O          69.6755   93.4399   14.9595 O.3     1  UNL1       -0.5055
     25 C          67.9041   91.9615   13.7650 C.ar    1  UNL1        0.0364
     26 C          66.5549   91.3063   13.7513 C.ar    1  UNL1        0.0012
     27 H          69.9391   93.9541   15.6971 H       1  UNL1        0.2922
@<TRIPOS>BOND
     1    16    15    1
     2    16    17    1
     3    17    18    1
     4    17    20    1
     5    20    21   ar
     6    21    22   ar
     7    22    23   ar
     8    23    24    1
     9    23    25   ar
    10    25    26   ar
    11    16     1    1
    12     1     2    1
    13     2     3    1
    14     3     4    1
    15     4     5    1
    16     4     9    1
    17     9    10   ar
    18    10    11   ar
    19    11    12   ar
    20    12    13   ar
    21    13    14   ar
    22     4     6    1
    23     6     7    1
    24    26    20   ar
    25     7     1    1
    26    14     9   ar
    27    18    19    1
    28    24    27    1
    29     5     8    1
@<TRIPOS>MOLECULE
*****
 27 29 0 0 0
SMALL
GASTEIGER

@<TRIPOS>ATOM
      1 N          61.6082   87.1801    9.9867 N.3     1  UNL1       -0.2713
      2 C          62.3321   86.5071    8.8585 C.3     1  UNL1        0.0749
      3 C          63.0205   85.1940    9.0863 C.3     1  UNL1        0.0485
      4 C          62.9849   84.5540   10.4424 C.3     1  UNL1        0.1096
      5 O          63.7942   83.5358    9.6950 O.3     1  UNL1       -0.3826
      6 C          62.2610   85.2270   11.5707 C.3     1  UNL1        0.0485
      7 C          61.5726   86.5401   11.3429 C.3     1  UNL1        0.0749
      8 H          63.9036   83.8221    8.7747 H       1  UNL1        0.2107
      9 C          63.2304   83.5603   11.5390 C.ar    1  UNL1        0.0018
     10 C          62.8587   82.1203   11.3433 C.ar    1  UNL1       -0.0020
     11 C          63.1041   81.1267   12.4398 C.ar    1  UNL1       -0.0002
     12 C          63.7214   81.5730   13.7321 C.ar    1  UNL1       -0.0000
     13 C          64.0931   83.0129   13.9277 C.ar    1  UNL1       -0.0002
     14 C          63.8477   84.0066   12.8312 C.ar    1  UNL1       -0.0020
     15 C          60.2569   88.7741    8.4428 C.3     1  UNL1        0.0203
     16 C          60.9198   88.4932    9.7588 C.3     1  UNL1        0.0888
     17 C          60.8942   89.5254   10.8468 C.3     1  UNL1        0.1472
     18 O          59.6013   89.8673   11.5261 O.3     1  UNL1       -0.3787
     19 H          59.7598   90.5473   12.1994 H       1  UNL1        0.2108
     20 C          62.1617   90.2158   11.2557 C.ar    1  UNL1        0.0058
     21 C          62.9205   91.0420   10.2599 C.ar    1  UNL1        0.0012
     22 C          64.1879   91.7323   10.6687 C.ar    1  UNL1        0.0364
     23 C          64.6965   91.5964   12.0733 C.ar    1  UNL1        0.1337
     24 O          65.9639   92.2867   12.4821 O.3     1  UNL1       -0.5055
     25 C          63.9377   90.7701   13.0691 C.ar    1  UNL1        0.0364
     26 C          62.6703   90.0798   12.6602 C.ar    1  UNL1        0.0012
     27 H          66.4379   92.8028   11.8601 H       1  UNL1        0.2922
@<TRIPOS>BOND
     1    16    15    1
     2    16    17    1
     3    17    18    1
     4    17    20    1
     5    20    21   ar
     6    21    22   ar
     7    22    23   ar
     8    23    24    1
     9    23    25   ar
    10    25    26   ar
    11    16     1    1
    12     1     2    1
    13     2     3    1
    14     3     4    1
    15     4     5    1
    16     4     9    1
    17     9    10   ar
    18    10    11   ar
    19    11    12   ar
    20    12    13   ar
    21    13    14   ar
    22     4     6    1
    23     6     7    1
    24    26    20   ar
    25     7     1    1
    26    14     9   ar
    27    18    19    1
    28    24    27    1
    29     5     8    1
@<TRIPOS>MOLECULE
*****
 27 29 0 0 0
SMALL
GASTEIGER

@<TRIPOS>ATOM
      1 N          62.5275   90.4035   11.2963 N.3     1  UNL1       -0.2713
      2 C          63.1753   90.4550   12.6482 C.3     1  UNL1        0.0749
      3 C          64.4167   91.2713   12.8544 C.3     1  UNL1        0.0485
      4 C          65.0103   92.0361   11.7087 C.3     1  UNL1        0.1096
      5 O          65.9814   92.3968   12.7936 O.3     1  UNL1       -0.3826
      6 C          64.3625   91.9846   10.3567 C.3     1  UNL1        0.0485
      7 C          63.1211   91.1683   10.1505 C.3     1  UNL1        0.0749
      8 H          65.7188   91.9622   13.6201 H       1  UNL1        0.2107
      9 C          65.9412   92.9262   10.9398 C.ar    1  UNL1        0.0018
     10 C          65.7446   94.4131   10.9598 C.ar    1  UNL1       -0.0020
     11 C          66.6754   95.3032   10.1909 C.ar    1  UNL1       -0.0002
     12 C          67.8030   94.7063    9.4019 C.ar    1  UNL1       -0.0000
     13 C          67.9996   93.2194    9.3818 C.ar    1  UNL1       -0.0002
     14 C          67.0686   92.3293   10.1508 C.ar    1  UNL1       -0.0020
     15 C          60.1325   89.7235   12.0391 C.3     1  UNL1        0.0203
     16 C          61.2861   89.5872   11.0900 C.3     1  UNL1        0.0888
     17 C          61.1982   88.6345    9.9348 C.3     1  UNL1        0.1472
     18 O          60.4823   89.0404    8.6807 O.3     1  UNL1       -0.3787
     19 H          60.5182   88.3143    8.0385 H       1  UNL1        0.2108
     20 C          61.8263   87.2758   10.0336 C.ar    1  UNL1        0.0058
     21 C          61.9280   86.5916   11.3646 C.ar    1  UNL1        0.0012
     22 C          62.5560   85.2330   11.4633 C.ar    1  UNL1        0.0364
     23 C          63.0823   84.5586   10.2311 C.ar    1  UNL1        0.1337
     24 O          63.7103   83.2000   10.3300 O.3     1  UNL1       -0.5055
     25 C          62.9806   85.2429    8.9002 C.ar    1  UNL1        0.0364
     26 C          62.3525   86.6014    8.8014 C.ar    1  UNL1        0.0012
     27 H          63.7739   82.7726   11.1614 H       1  UNL1        0.2922
@<TRIPOS>BOND
     1    16    15    1
     2    16    17    1
     3    17    18    1
     4    17    20    1
     5    20    21   ar
     6    21    22   ar
     7    22    23   ar
     8    23    24    1
     9    23    25   ar
    10    25    26   ar
    11    16     1    1
    12     1     2    1
    13     2     3    1
    14     3     4    1
    15     4     5    1
    16     4     9    1
    17     9    10   ar
    18    10    11   ar
    19    11    12   ar
    20    12    13   ar
    21    13    14   ar
    22     4     6    1
    23     6     7    1
    24    26    20   ar
    25     7     1    1
    26    14     9   ar
    27    18    19    1
    28    24    27    1
    29     5     8    1
@<TRIPOS>MOLECULE
*****
 27 29 0 0 0
SMALL
GASTEIGER

@<TRIPOS>ATOM
      1 N          63.1293   90.5570   11.6938 N.3     1  UNL1       -0.2713
      2 C          63.8300   90.8026   12.9971 C.3     1  UNL1        0.0749
      3 C          64.9702   91.7750   13.0639 C.3     1  UNL1        0.0485
      4 C          65.4096   92.5018   11.8275 C.3     1  UNL1        0.1096
      5 O          66.3801   93.0681   12.8213 O.3     1  UNL1       -0.3826
      6 C          64.7088   92.2561   10.5242 C.3     1  UNL1        0.0485
      7 C          63.5687   91.2837   10.4573 C.3     1  UNL1        0.0749
      8 H          66.2129   92.6794   13.6941 H       1  UNL1        0.2107
      9 C          66.1861   93.4252   10.9362 C.ar    1  UNL1        0.0018
     10 C          67.2839   92.8837   10.0694 C.ar    1  UNL1       -0.0020
     11 C          68.0603   93.8071    9.1780 C.ar    1  UNL1       -0.0002
     12 C          67.7389   95.2721    9.1536 C.ar    1  UNL1       -0.0000
     13 C          66.6411   95.8136   10.0205 C.ar    1  UNL1       -0.0002
     14 C          65.8646   94.8902   10.9118 C.ar    1  UNL1       -0.0020
     15 C          60.5754   90.0797   11.7084 C.3     1  UNL1        0.0203
     16 C          61.9891   89.5846   11.6270 C.3     1  UNL1        0.0888
     17 C          62.2625   88.1172   11.4787 C.3     1  UNL1        0.1472
     18 O          63.0606   87.3938   12.5226 O.3     1  UNL1       -0.3787
     19 H          63.1442   86.4595   12.2758 H       1  UNL1        0.2108
     20 C          61.7379   87.3732   10.2865 C.ar    1  UNL1        0.0058
     21 C          60.3081   87.5431    9.8661 C.ar    1  UNL1        0.0012
     22 C          59.7835   86.7991    8.6739 C.ar    1  UNL1        0.0364
     23 C          60.6887   85.8852    7.9022 C.ar    1  UNL1        0.1337
     24 O          60.1640   85.1412    6.7101 O.3     1  UNL1       -0.5055
     25 C          62.1185   85.7154    8.3227 C.ar    1  UNL1        0.0364
     26 C          62.6431   86.4594    9.5149 C.ar    1  UNL1        0.0012
     27 H          59.2709   85.2473    6.4474 H       1  UNL1        0.2922
@<TRIPOS>BOND
     1    16    15    1
     2    16    17    1
     3    17    18    1
     4    17    20    1
     5    20    21   ar
     6    21    22   ar
     7    22    23   ar
     8    23    24    1
     9    23    25   ar
    10    25    26   ar
    11    16     1    1
    12     1     2    1
    13     2     3    1
    14     3     4    1
    15     4     5    1
    16     4     9    1
    17     9    10   ar
    18    10    11   ar
    19    11    12   ar
    20    12    13   ar
    21    13    14   ar
    22     4     6    1
    23     6     7    1
    24    26    20   ar
    25     7     1    1
    26    14     9   ar
    27    18    19    1
    28    24    27    1
    29     5     8    1
@<TRIPOS>MOLECULE
*****
 27 29 0 0 0
SMALL
GASTEIGER

@<TRIPOS>ATOM
      1 N          62.7783   89.9006   11.3819 N.3     1  UNL1       -0.2713
      2 C          63.2666   91.0021   10.4885 C.3     1  UNL1        0.0749
      3 C          64.3466   91.9289   10.9624 C.3     1  UNL1        0.0485
      4 C          64.9382   91.7543   12.3297 C.3     1  UNL1        0.1096
      5 O          65.7273   92.9379   11.8537 O.3     1  UNL1       -0.3826
      6 C          64.4499   90.6528   13.2231 C.3     1  UNL1        0.0485
      7 C          63.3699   89.7259   12.7493 C.3     1  UNL1        0.0749
      8 H          65.4463   93.1740   10.9558 H       1  UNL1        0.2107
      9 C          65.8039   91.9907   13.5317 C.ar    1  UNL1        0.0018
     10 C          67.2936   92.0748   13.3782 C.ar    1  UNL1       -0.0020
     11 C          68.1593   92.3113   14.5802 C.ar    1  UNL1       -0.0002
     12 C          67.5351   92.4636   15.9357 C.ar    1  UNL1       -0.0000
     13 C          66.0454   92.3795   16.0891 C.ar    1  UNL1       -0.0002
     14 C          65.1798   92.1430   14.8871 C.ar    1  UNL1       -0.0020
     15 C          60.3839   89.5285   10.4446 C.3     1  UNL1        0.0203
     16 C          61.6983   88.9738   10.9080 C.3     1  UNL1        0.0888
     17 C          61.9326   87.4923   10.8976 C.3     1  UNL1        0.1472
     18 O          62.3724   86.7936   12.1500 O.3     1  UNL1       -0.3787
     19 H          62.4774   85.8460   11.9717 H       1  UNL1        0.2108
     20 C          61.7271   86.7093    9.6347 C.ar    1  UNL1        0.0058
     21 C          62.8611   85.9230    9.0468 C.ar    1  UNL1        0.0012
     22 C          62.6556   85.1401    7.7840 C.ar    1  UNL1        0.0364
     23 C          61.3160   85.1434    7.1091 C.ar    1  UNL1        0.1337
     24 O          61.1105   84.3604    5.8462 O.3     1  UNL1       -0.5055
     25 C          60.1820   85.9297    7.6970 C.ar    1  UNL1        0.0364
     26 C          60.3875   86.7126    8.9598 C.ar    1  UNL1        0.0012
     27 H          61.8189   83.8693    5.4790 H       1  UNL1        0.2922
@<TRIPOS>BOND
     1    16    15    1
     2    16    17    1
     3    17    18    1
     4    17    20    1
     5    20    21   ar
     6    21    22   ar
     7    22    23   ar
     8    23    24    1
     9    23    25   ar
    10    25    26   ar
    11    16     1    1
    12     1     2    1
    13     2     3    1
    14     3     4    1
    15     4     5    1
    16     4     9    1
    17     9    10   ar
    18    10    11   ar
    19    11    12   ar
    20    12    13   ar
    21    13    14   ar
    22     4     6    1
    23     6     7    1
    24    26    20   ar
    25     7     1    1
    26    14     9   ar
    27    18    19    1
    28    24    27    1
    29     5     8    1
@<TRIPOS>MOLECULE
*****
 27 29 0 0 0
SMALL
GASTEIGER

@<TRIPOS>ATOM
      1 N          62.8202   89.0932   12.7538 N.3     1  UNL1       -0.2713
      2 C          61.7012   89.9985   12.3317 C.3     1  UNL1        0.0749
      3 C          60.8728   89.6565   11.1289 C.3     1  UNL1        0.0485
      4 C          61.1635   88.4092   10.3480 C.3     1  UNL1        0.1096
      5 O          60.0058   88.9462    9.5597 O.3     1  UNL1       -0.3826
      6 C          62.2825   87.5038   10.7701 C.3     1  UNL1        0.0485
      7 C          63.1109   87.8458   11.9730 C.3     1  UNL1        0.0749
      8 H          59.7007   89.7764    9.9579 H       1  UNL1        0.2107
      9 C          61.0521   87.3483    9.2934 C.ar    1  UNL1        0.0018
     10 C          59.7501   87.1334    8.5804 C.ar    1  UNL1       -0.0020
     11 C          59.6386   86.0726    7.5258 C.ar    1  UNL1       -0.0002
     12 C          60.8294   85.2266    7.1842 C.ar    1  UNL1       -0.0000
     13 C          62.1314   85.4416    7.8972 C.ar    1  UNL1       -0.0002
     14 C          62.2428   86.5025    8.9519 C.ar    1  UNL1       -0.0020
     15 C          64.0598   88.3571   14.9152 C.3     1  UNL1        0.0203
     16 C          63.6485   89.4352   13.9567 C.3     1  UNL1        0.0888
     17 C          64.0656   90.8551   14.2010 C.3     1  UNL1        0.1472
     18 O          63.5297   91.6006   15.3872 O.3     1  UNL1       -0.3787
     19 H          63.8965   92.4986   15.3974 H       1  UNL1        0.2108
     20 C          65.0185   91.5296   13.2592 C.ar    1  UNL1        0.0058
     21 C          64.5511   91.9611   11.9008 C.ar    1  UNL1        0.0012
     22 C          65.5041   92.6355   10.9590 C.ar    1  UNL1        0.0364
     23 C          66.9244   92.8785   11.3756 C.ar    1  UNL1        0.1337
     24 O          67.8774   93.5530   10.4338 O.3     1  UNL1       -0.5055
     25 C          67.3918   92.4470   12.7340 C.ar    1  UNL1        0.0364
     26 C          66.4389   91.7726   13.6758 C.ar    1  UNL1        0.0012
     27 H          67.5854   93.8225    9.5852 H       1  UNL1        0.2922
@<TRIPOS>BOND
     1    16    15    1
     2    16    17    1
     3    17    18    1
     4    17    20    1
     5    20    21   ar
     6    21    22   ar
     7    22    23   ar
     8    23    24    1
     9    23    25   ar
    10    25    26   ar
    11    16     1    1
    12     1     2    1
    13     2     3    1
    14     3     4    1
    15     4     5    1
    16     4     9    1
    17     9    10   ar
    18    10    11   ar
    19    11    12   ar
    20    12    13   ar
    21    13    14   ar
    22     4     6    1
    23     6     7    1
    24    26    20   ar
    25     7     1    1
    26    14     9   ar
    27    18    19    1
    28    24    27    1
    29     5     8    1
