@<TRIPOS>MOLECULE
*****
 32 35 0 0 0
SMALL
GASTEIGER

@<TRIPOS>ATOM
      1 C          63.7472   88.6905   15.5844 C.2     1  UNL1        0.2521
      2 O          63.3805   88.9000   17.0238 O.2     1  UNL1       -0.2698
      3 N          63.6055   87.3320   14.9645 N.am    1  UNL1       -0.2725
      4 C          63.9722   87.1224   13.5252 C.3     1  UNL1        0.1151
      5 C          63.8305   85.7638   12.9053 C.3     1  UNL1        0.1124
      6 N          63.3221   84.6149   13.7246 N.pl3   1  UNL1       -0.3023
      7 C          62.9554   84.8244   15.1639 C.3     1  UNL1        0.1124
      8 C          63.0971   86.1829   15.7839 C.3     1  UNL1        0.1151
      9 C          63.1804   83.2564   13.1047 C.ar    1  UNL1        0.0758
     10 C          62.9712   82.0529   13.9752 C.ar    1  UNL1        0.0175
     11 C          62.8295   80.6943   13.3551 C.ar    1  UNL1        0.0117
     12 C          62.8970   80.5394   11.8647 C.ar    1  UNL1        0.0708
     13 C          63.1063   81.7429   10.9942 C.ar    1  UNL1        0.0412
     14 C          63.2480   83.1014   11.6142 C.ar    1  UNL1        0.1540
     15 F          63.4572   84.3049   10.7437 F       1  UNL1       -0.2028
     16 C          62.7553   79.1809   11.2448 C.1     1  UNL1        0.1005
     17 N          62.6137   77.8223   10.6248 N.1     1  UNL1       -0.1908
     18 C          66.0705   91.6380   14.2943 C.ar    1  UNL1        0.1061
     19 C          65.2725   92.1374   13.1265 C.ar    1  UNL1        0.0215
     20 C          63.9662   91.4879   12.7780 C.ar    1  UNL1        0.0384
     21 C          63.4577   90.3389   13.5973 C.ar    1  UNL1        0.1429
     22 C          64.2556   89.8395   14.7651 C.ar    1  UNL1        0.0887
     23 C          65.5620   90.4890   15.1136 C.ar    1  UNL1        0.0259
     24 C          68.6833   92.9371   14.9913 C.3     1  UNL1        0.1816
     25 S          67.3769   92.2875   14.6428 S.O2    1  UNL1        0.0105
     26 O          66.8714   92.5608   16.0284 O.2     1  UNL1       -0.1686
     27 O          67.8824   92.0143   13.2572 O.2     1  UNL1       -0.1686
     28 O          62.1513   89.6894   13.2488 O.3     1  UNL1       -0.4753
     29 C          61.6591   89.7076   11.8320 C.3     1  UNL1        0.2053
     30 C          61.6094   88.4354   11.0388 C.3     1  UNL1        0.0438
     31 C          62.0525   87.6221    9.8589 C.3     1  UNL1        0.0038
     32 C          61.0804   87.0453   10.8450 C.3     1  UNL1        0.0038
@<TRIPOS>BOND
     1    24    25    1
     2    25    26    2
     3    25    27    2
     4    25    18    1
     5    18    19   ar
     6    19    20   ar
     7    20    21   ar
     8    21    28    1
     9    28    29    1
    10    29    30    1
    11    30    31    1
    12    31    32    1
    13    21    22   ar
    14    22     1    1
    15     1     2    2
    16     1     3   am
    17     3     4    1
    18     4     5    1
    19     5     6    1
    20     6     9    1
    21     9    10   ar
    22    10    11   ar
    23    11    12   ar
    24    12    16    1
    25    16    17    3
    26    12    13   ar
    27    13    14   ar
    28    14    15    1
    29     6     7    1
    30     7     8    1
    31    22    23   ar
    32    23    18   ar
    33    32    30    1
    34     8     3    1
    35    14     9   ar
@<TRIPOS>MOLECULE
*****
 32 35 0 0 0
SMALL
GASTEIGER

@<TRIPOS>ATOM
      1 C          64.0440   90.5899   15.8628 C.2     1  UNL1        0.2521
      2 O          63.3211   91.2280   17.0118 O.2     1  UNL1       -0.2698
      3 N          63.8668   89.1266   15.5848 N.am    1  UNL1       -0.2725
      4 C          64.5897   88.4885   14.4358 C.3     1  UNL1        0.1151
      5 C          64.4124   87.0251   14.1578 C.3     1  UNL1        0.1124
      6 N          63.5123   86.1999   15.0288 N.pl3   1  UNL1       -0.3023
      7 C          62.7893   86.8380   16.1778 C.3     1  UNL1        0.1124
      8 C          62.9666   88.3013   16.4558 C.3     1  UNL1        0.1151
      9 C          63.3350   84.7366   14.7508 C.ar    1  UNL1        0.0758
     10 C          61.9775   84.1097   14.8695 C.ar    1  UNL1        0.0175
     11 C          61.8003   82.6463   14.5915 C.ar    1  UNL1        0.0117
     12 C          62.9805   81.8100   14.1948 C.ar    1  UNL1        0.0708
     13 C          64.3381   82.4369   14.0762 C.ar    1  UNL1        0.0412
     14 C          64.5153   83.9002   14.3541 C.ar    1  UNL1        0.1540
     15 F          65.8728   84.5271   14.2354 F       1  UNL1       -0.2028
     16 C          62.8033   80.3467   13.9169 C.1     1  UNL1        0.1005
     17 N          62.6261   78.8833   13.6388 N.1     1  UNL1       -0.1908
     18 C          67.1467   92.7529   14.6607 C.ar    1  UNL1        0.1061
     19 C          66.7447   93.0656   13.2499 C.ar    1  UNL1        0.0215
     20 C          65.4424   92.5531   12.7100 C.ar    1  UNL1        0.0384
     21 C          64.5422   91.7279   13.5809 C.ar    1  UNL1        0.1429
     22 C          64.9443   91.4151   14.9917 C.ar    1  UNL1        0.0887
     23 C          66.2465   91.9276   15.5316 C.ar    1  UNL1        0.0259
     24 C          69.7512   93.7778   15.7405 C.3     1  UNL1        0.1816
     25 S          68.4490   93.2654   15.2006 S.O2    1  UNL1        0.0105
     26 O          69.1844   92.5481   14.1076 O.2     1  UNL1       -0.1686
     27 O          67.7136   93.9826   16.2936 O.2     1  UNL1       -0.1686
     28 O          63.2400   91.2154   13.0410 O.3     1  UNL1       -0.4753
     29 C          63.1096   90.8873   11.5832 C.3     1  UNL1        0.2053
     30 C          61.7975   90.4080   11.0367 C.3     1  UNL1        0.0438
     31 C          60.3072   90.2870   11.1556 C.3     1  UNL1        0.0038
     32 C          61.0153   89.6988    9.9713 C.3     1  UNL1        0.0038
@<TRIPOS>BOND
     1    24    25    1
     2    25    26    2
     3    25    27    2
     4    25    18    1
     5    18    19   ar
     6    19    20   ar
     7    20    21   ar
     8    21    28    1
     9    28    29    1
    10    29    30    1
    11    30    31    1
    12    31    32    1
    13    21    22   ar
    14    22     1    1
    15     1     2    2
    16     1     3   am
    17     3     4    1
    18     4     5    1
    19     5     6    1
    20     6     9    1
    21     9    10   ar
    22    10    11   ar
    23    11    12   ar
    24    12    16    1
    25    16    17    3
    26    12    13   ar
    27    13    14   ar
    28    14    15    1
    29     6     7    1
    30     7     8    1
    31    22    23   ar
    32    23    18   ar
    33    32    30    1
    34     8     3    1
    35    14     9   ar
@<TRIPOS>MOLECULE
*****
 32 35 0 0 0
SMALL
GASTEIGER

@<TRIPOS>ATOM
      1 C          63.6739   87.7692   13.6574 C.2     1  UNL1        0.2521
      2 O          64.2083   88.1184   15.0147 O.2     1  UNL1       -0.2698
      3 N          63.5420   86.3315   13.2504 N.am    1  UNL1       -0.2725
      4 C          63.0075   85.9822   11.8931 C.3     1  UNL1        0.1151
      5 C          62.8757   84.5445   11.4861 C.3     1  UNL1        0.1124
      6 N          63.2784   83.4561   12.4364 N.pl3   1  UNL1       -0.3023
      7 C          63.8129   83.8053   13.7938 C.3     1  UNL1        0.1124
      8 C          63.9447   85.2430   14.2008 C.3     1  UNL1        0.1151
      9 C          63.1466   82.0184   12.0295 C.ar    1  UNL1        0.0758
     10 C          62.7216   80.9901   13.0354 C.ar    1  UNL1        0.0175
     11 C          62.5898   79.5523   12.6283 C.ar    1  UNL1        0.0117
     12 C          62.8829   79.1430   11.2154 C.ar    1  UNL1        0.0708
     13 C          63.3079   80.1713   10.2095 C.ar    1  UNL1        0.0412
     14 C          63.4397   81.6090   10.6164 C.ar    1  UNL1        0.1540
     15 F          63.8647   82.6373    9.6105 F       1  UNL1       -0.2028
     16 C          62.7511   77.7053   10.8084 C.1     1  UNL1        0.1005
     17 N          62.6192   76.2676   10.4014 N.1     1  UNL1       -0.1908
     18 C          61.8556   89.6696   10.6854 C.ar    1  UNL1        0.1061
     19 C          62.4658   91.0345   10.8064 C.ar    1  UNL1        0.0215
     20 C          63.4787   91.3110   11.8776 C.ar    1  UNL1        0.0384
     21 C          63.8814   90.2226   12.8280 C.ar    1  UNL1        0.1429
     22 C          63.2712   88.8577   12.7070 C.ar    1  UNL1        0.0887
     23 C          62.2583   88.5812   11.6358 C.ar    1  UNL1        0.0259
     24 C          59.8298   89.1166    8.5429 C.3     1  UNL1        0.1816
     25 S          60.8427   89.3931    9.6142 S.O2    1  UNL1        0.0105
     26 O          61.6173   88.1788    9.1952 O.2     1  UNL1       -0.1686
     27 O          60.0682   90.6074   10.0331 O.2     1  UNL1       -0.1686
     28 O          64.8943   90.4990   13.8992 O.3     1  UNL1       -0.4753
     29 C          65.8758   91.6209   13.7319 C.3     1  UNL1        0.2053
     30 C          66.7356   92.0437   14.8860 C.3     1  UNL1        0.0438
     31 C          68.0614   92.0413   15.5874 C.3     1  UNL1        0.0038
     32 C          66.8989   92.7783   16.1835 C.3     1  UNL1        0.0038
@<TRIPOS>BOND
     1    24    25    1
     2    25    26    2
     3    25    27    2
     4    25    18    1
     5    18    19   ar
     6    19    20   ar
     7    20    21   ar
     8    21    28    1
     9    28    29    1
    10    29    30    1
    11    30    31    1
    12    31    32    1
    13    21    22   ar
    14    22     1    1
    15     1     2    2
    16     1     3   am
    17     3     4    1
    18     4     5    1
    19     5     6    1
    20     6     9    1
    21     9    10   ar
    22    10    11   ar
    23    11    12   ar
    24    12    16    1
    25    16    17    3
    26    12    13   ar
    27    13    14   ar
    28    14    15    1
    29     6     7    1
    30     7     8    1
    31    22    23   ar
    32    23    18   ar
    33    32    30    1
    34     8     3    1
    35    14     9   ar
@<TRIPOS>MOLECULE
*****
 32 35 0 0 0
SMALL
GASTEIGER

@<TRIPOS>ATOM
      1 C          63.8714   83.7596   11.6306 C.2     1  UNL1        0.2521
      2 O          64.8569   82.8583   10.9476 O.2     1  UNL1       -0.2698
      3 N          63.0492   84.7202   10.8238 N.am    1  UNL1       -0.2725
      4 C          62.0637   85.6215   11.5068 C.3     1  UNL1        0.1151
      5 C          61.2415   86.5822   10.6999 C.3     1  UNL1        0.1124
      6 N          61.4048   86.6416    9.2100 N.pl3   1  UNL1       -0.3023
      7 C          62.3903   85.7404    8.5270 C.3     1  UNL1        0.1124
      8 C          63.2125   84.7797    9.3338 C.3     1  UNL1        0.1151
      9 C          60.5826   87.6023    8.4032 C.ar    1  UNL1        0.0758
     10 C          59.5955   87.0852    7.3991 C.ar    1  UNL1        0.0175
     11 C          58.7732   88.0460    6.5922 C.ar    1  UNL1        0.0117
     12 C          58.9382   89.5238    6.7895 C.ar    1  UNL1        0.0708
     13 C          59.9253   90.0409    7.7936 C.ar    1  UNL1        0.0412
     14 C          60.7475   89.0802    8.6004 C.ar    1  UNL1        0.1540
     15 F          61.7346   89.5973    9.6045 F       1  UNL1       -0.2028
     16 C          58.1160   90.4845    5.9826 C.1     1  UNL1        0.1005
     17 N          57.2938   91.4452    5.1757 N.1     1  UNL1       -0.1908
     18 C          63.3841   84.9069   15.3984 C.ar    1  UNL1        0.1061
     19 C          63.3815   83.5813   16.1003 C.ar    1  UNL1        0.0215
     20 C          63.5423   82.3151   15.3123 C.ar    1  UNL1        0.0384
     21 C          63.7056   82.3745   13.8225 C.ar    1  UNL1        0.1429
     22 C          63.7081   83.7001   13.1206 C.ar    1  UNL1        0.0887
     23 C          63.5473   84.9663   13.9086 C.ar    1  UNL1        0.0259
     24 C          63.0625   87.4393   16.9744 C.3     1  UNL1        0.1816
     25 S          63.2233   86.1731   16.1864 S.O2    1  UNL1        0.0105
     26 O          62.3547   85.4493   17.1722 O.2     1  UNL1       -0.1686
     27 O          64.0919   86.8968   15.2007 O.2     1  UNL1       -0.1686
     28 O          63.8664   81.1083   13.0345 O.3     1  UNL1       -0.4753
     29 C          62.6579   80.4018   12.4955 C.3     1  UNL1        0.2053
     30 C          62.7329   79.6849   11.1800 C.3     1  UNL1        0.0438
     31 C          62.8626   79.7216    9.6861 C.3     1  UNL1        0.0038
     32 C          62.7329   78.4064   10.3956 C.3     1  UNL1        0.0038
@<TRIPOS>BOND
     1    24    25    1
     2    25    26    2
     3    25    27    2
     4    25    18    1
     5    18    19   ar
     6    19    20   ar
     7    20    21   ar
     8    21    28    1
     9    28    29    1
    10    29    30    1
    11    30    31    1
    12    31    32    1
    13    21    22   ar
    14    22     1    1
    15     1     2    2
    16     1     3   am
    17     3     4    1
    18     4     5    1
    19     5     6    1
    20     6     9    1
    21     9    10   ar
    22    10    11   ar
    23    11    12   ar
    24    12    16    1
    25    16    17    3
    26    12    13   ar
    27    13    14   ar
    28    14    15    1
    29     6     7    1
    30     7     8    1
    31    22    23   ar
    32    23    18   ar
    33    32    30    1
    34     8     3    1
    35    14     9   ar
@<TRIPOS>MOLECULE
*****
 32 35 0 0 0
SMALL
GASTEIGER

@<TRIPOS>ATOM
      1 C          63.5571   88.2956   13.8905 C.2     1  UNL1        0.2521
      2 O          63.7638   88.6195   15.3405 O.2     1  UNL1       -0.2698
      3 N          63.4484   86.8661   13.4494 N.am    1  UNL1       -0.2725
      4 C          63.2416   86.5423   11.9995 C.3     1  UNL1        0.1151
      5 C          63.1329   85.1127   11.5584 C.3     1  UNL1        0.1124
      6 N          63.2309   84.0070   12.5672 N.pl3   1  UNL1       -0.3023
      7 C          63.4377   84.3309   14.0172 C.3     1  UNL1        0.1124
      8 C          63.5464   85.7604   14.4583 C.3     1  UNL1        0.1151
      9 C          63.1222   82.5775   12.1261 C.ar    1  UNL1        0.0758
     10 C          63.4995   82.1939   10.7259 C.ar    1  UNL1        0.0175
     11 C          63.3907   80.7643   10.2848 C.ar    1  UNL1        0.0117
     12 C          62.9048   79.7184   11.2439 C.ar    1  UNL1        0.0708
     13 C          62.5275   80.1020   12.6441 C.ar    1  UNL1        0.0412
     14 C          62.6362   81.5315   13.0852 C.ar    1  UNL1        0.1540
     15 F          62.2589   81.9151   14.4854 F       1  UNL1       -0.2028
     16 C          62.7960   78.2889   10.8028 C.1     1  UNL1        0.1005
     17 N          62.6873   76.8593   10.3616 N.1     1  UNL1       -0.1908
     18 C          64.3857   91.6026   11.8589 C.ar    1  UNL1        0.1061
     19 C          63.2632   91.6129   10.8641 C.ar    1  UNL1        0.0215
     20 C          62.2386   90.5174   10.8781 C.ar    1  UNL1        0.0384
     21 C          62.3365   89.4117   11.8868 C.ar    1  UNL1        0.1429
     22 C          63.4591   89.4014   12.8817 C.ar    1  UNL1        0.0887
     23 C          64.4837   90.4969   12.8677 C.ar    1  UNL1        0.0259
     24 C          66.4349   93.7935   11.8310 C.3     1  UNL1        0.1816
     25 S          65.4103   92.6981   11.8449 S.O2    1  UNL1        0.0105
     26 O          65.4695   92.6618   13.3433 O.2     1  UNL1       -0.1686
     27 O          65.3511   92.7343   10.3466 O.2     1  UNL1       -0.1686
     28 O          61.3120   88.3162   11.9008 O.3     1  UNL1       -0.4753
     29 C          60.1616   88.3529   10.9389 C.3     1  UNL1        0.2053
     30 C          60.1807   87.4877    9.7137 C.3     1  UNL1        0.0438
     31 C          60.8009   86.3795    8.9155 C.3     1  UNL1        0.0038
     32 C          59.5934   87.0975    8.3898 C.3     1  UNL1        0.0038
@<TRIPOS>BOND
     1    24    25    1
     2    25    26    2
     3    25    27    2
     4    25    18    1
     5    18    19   ar
     6    19    20   ar
     7    20    21   ar
     8    21    28    1
     9    28    29    1
    10    29    30    1
    11    30    31    1
    12    31    32    1
    13    21    22   ar
    14    22     1    1
    15     1     2    2
    16     1     3   am
    17     3     4    1
    18     4     5    1
    19     5     6    1
    20     6     9    1
    21     9    10   ar
    22    10    11   ar
    23    11    12   ar
    24    12    16    1
    25    16    17    3
    26    12    13   ar
    27    13    14   ar
    28    14    15    1
    29     6     7    1
    30     7     8    1
    31    22    23   ar
    32    23    18   ar
    33    32    30    1
    34     8     3    1
    35    14     9   ar
@<TRIPOS>MOLECULE
*****
 32 35 0 0 0
SMALL
GASTEIGER

@<TRIPOS>ATOM
      1 C          59.9808   88.7598   10.8055 C.2     1  UNL1        0.2521
      2 O          58.8160   88.4180   11.6867 O.2     1  UNL1       -0.2698
      3 N          61.2038   89.3991   11.3934 N.am    1  UNL1       -0.2725
      4 C          62.3686   89.7408   10.5123 C.3     1  UNL1        0.1151
      5 C          63.5916   90.3802   11.1003 C.3     1  UNL1        0.1124
      6 N          63.6497   90.6777   12.5693 N.pl3   1  UNL1       -0.3023
      7 C          62.4849   90.3359   13.4504 C.3     1  UNL1        0.1124
      8 C          61.2619   89.6966   12.8625 C.3     1  UNL1        0.1151
      9 C          64.8726   91.3170   13.1572 C.ar    1  UNL1        0.0758
     10 C          65.4584   90.7846   14.4313 C.ar    1  UNL1        0.0175
     11 C          66.6814   91.4239   15.0192 C.ar    1  UNL1        0.0117
     12 C          67.3186   92.5957   14.3330 C.ar    1  UNL1        0.0708
     13 C          66.7328   93.1281   13.0588 C.ar    1  UNL1        0.0412
     14 C          65.5099   92.4888   12.4710 C.ar    1  UNL1        0.1540
     15 F          64.9242   93.0212   11.1968 F       1  UNL1       -0.2028
     16 C          68.5415   93.2350   14.9209 C.1     1  UNL1        0.1005
     17 N          69.7645   93.8743   15.5088 N.1     1  UNL1       -0.1908
     18 C          59.4667   89.2395    6.8997 C.ar    1  UNL1        0.1061
     19 C          59.8064   87.8672    6.3984 C.ar    1  UNL1        0.0215
     20 C          60.2042   86.7924    7.3662 C.ar    1  UNL1        0.0384
     21 C          60.2624   87.0899    8.8352 C.ar    1  UNL1        0.1429
     22 C          59.9227   88.4622    9.3365 C.ar    1  UNL1        0.0887
     23 C          59.5248   89.5370    8.3687 C.ar    1  UNL1        0.0259
     24 C          58.6710   91.3891    4.9642 C.3     1  UNL1        0.1816
     25 S          59.0688   90.3143    5.9320 S.O2    1  UNL1        0.0105
     26 O          57.6276   90.1037    6.2906 O.2     1  UNL1       -0.1686
     27 O          60.5100   90.5248    5.5733 O.2     1  UNL1       -0.1686
     28 O          60.6602   86.0151    9.8029 O.3     1  UNL1       -0.4753
     29 C          62.1111   85.7588   10.0844 C.3     1  UNL1        0.2053
     30 C          62.5089   84.8938   11.2434 C.3     1  UNL1        0.0438
     31 C          62.8523   83.5434   11.7988 C.3     1  UNL1        0.0038
     32 C          62.8544   84.7458   12.6955 C.3     1  UNL1        0.0038
@<TRIPOS>BOND
     1    24    25    1
     2    25    26    2
     3    25    27    2
     4    25    18    1
     5    18    19   ar
     6    19    20   ar
     7    20    21   ar
     8    21    28    1
     9    28    29    1
    10    29    30    1
    11    30    31    1
    12    31    32    1
    13    21    22   ar
    14    22     1    1
    15     1     2    2
    16     1     3   am
    17     3     4    1
    18     4     5    1
    19     5     6    1
    20     6     9    1
    21     9    10   ar
    22    10    11   ar
    23    11    12   ar
    24    12    16    1
    25    16    17    3
    26    12    13   ar
    27    13    14   ar
    28    14    15    1
    29     6     7    1
    30     7     8    1
    31    22    23   ar
    32    23    18   ar
    33    32    30    1
    34     8     3    1
    35    14     9   ar
@<TRIPOS>MOLECULE
*****
 32 35 0 0 0
SMALL
GASTEIGER

@<TRIPOS>ATOM
      1 C          64.2943   90.0877   13.9085 C.2     1  UNL1        0.2521
      2 O          64.6464   90.7745   15.1947 O.2     1  UNL1       -0.2698
      3 N          64.0556   88.6069   13.8899 N.am    1  UNL1       -0.2725
      4 C          63.7035   87.9201   12.6037 C.3     1  UNL1        0.1151
      5 C          63.4648   86.4393   12.5851 C.3     1  UNL1        0.1124
      6 N          63.5781   85.6454   13.8527 N.pl3   1  UNL1       -0.3023
      7 C          63.9302   86.3322   15.1389 C.3     1  UNL1        0.1124
      8 C          64.1689   87.8129   15.1575 C.3     1  UNL1        0.1151
      9 C          63.3394   84.1647   13.8341 C.ar    1  UNL1        0.0758
     10 C          64.2151   83.2742   13.0033 C.ar    1  UNL1        0.0175
     11 C          63.9763   81.7934   12.9847 C.ar    1  UNL1        0.0117
     12 C          62.8619   81.2031   13.7968 C.ar    1  UNL1        0.0708
     13 C          61.9862   82.0936   14.6276 C.ar    1  UNL1        0.0412
     14 C          62.2249   83.5744   14.6462 C.ar    1  UNL1        0.1540
     15 F          61.3492   84.4648   15.4770 F       1  UNL1       -0.2028
     16 C          62.6231   79.7224   13.7782 C.1     1  UNL1        0.1005
     17 N          62.3844   78.2416   13.7596 N.1     1  UNL1       -0.1908
     18 C          65.1917   92.5730   10.9475 C.ar    1  UNL1        0.1061
     19 C          63.9544   92.4696   10.1058 C.ar    1  UNL1        0.0215
     20 C          62.8304   91.5723   10.5317 C.ar    1  UNL1        0.0384
     21 C          62.9437   90.7783   11.7993 C.ar    1  UNL1        0.1429
     22 C          64.1810   90.8817   12.6409 C.ar    1  UNL1        0.0887
     23 C          65.3050   91.7790   12.2150 C.ar    1  UNL1        0.0259
     24 C          67.4397   94.3677   10.0956 C.3     1  UNL1        0.1816
     25 S          66.3157   93.4703   10.5215 S.O2    1  UNL1        0.0105
     26 O          65.3934   94.6520   10.5773 O.2     1  UNL1       -0.1686
     27 O          67.2379   92.2887   10.4658 O.2     1  UNL1       -0.1686
     28 O          61.8197   89.8810   12.2252 O.3     1  UNL1       -0.4753
     29 C          60.6266   89.6990   11.3345 C.3     1  UNL1        0.2053
     30 C          60.6702   88.6989   10.2174 C.3     1  UNL1        0.0438
     31 C          61.2819   87.4845    9.5842 C.3     1  UNL1        0.0038
     32 C          60.1340   88.1811    8.9158 C.3     1  UNL1        0.0038
@<TRIPOS>BOND
     1    24    25    1
     2    25    26    2
     3    25    27    2
     4    25    18    1
     5    18    19   ar
     6    19    20   ar
     7    20    21   ar
     8    21    28    1
     9    28    29    1
    10    29    30    1
    11    30    31    1
    12    31    32    1
    13    21    22   ar
    14    22     1    1
    15     1     2    2
    16     1     3   am
    17     3     4    1
    18     4     5    1
    19     5     6    1
    20     6     9    1
    21     9    10   ar
    22    10    11   ar
    23    11    12   ar
    24    12    16    1
    25    16    17    3
    26    12    13   ar
    27    13    14   ar
    28    14    15    1
    29     6     7    1
    30     7     8    1
    31    22    23   ar
    32    23    18   ar
    33    32    30    1
    34     8     3    1
    35    14     9   ar
@<TRIPOS>MOLECULE
*****
 32 35 0 0 0
SMALL
GASTEIGER

@<TRIPOS>ATOM
      1 C          63.5924   83.9798   11.8728 C.2     1  UNL1        0.2521
      2 O          64.6513   83.1083   11.2653 O.2     1  UNL1       -0.2698
      3 N          62.8126   84.9258   11.0085 N.am    1  UNL1       -0.2725
      4 C          61.7537   85.7973   11.6160 C.3     1  UNL1        0.1151
      5 C          60.9739   86.7433   10.7516 C.3     1  UNL1        0.1124
      6 N          61.2532   86.8177    9.2797 N.pl3   1  UNL1       -0.3023
      7 C          62.3121   85.9462    8.6722 C.3     1  UNL1        0.1124
      8 C          63.0918   85.0003    9.5365 C.3     1  UNL1        0.1151
      9 C          60.4734   87.7637    8.4154 C.ar    1  UNL1        0.0758
     10 C          60.6443   89.2447    8.5806 C.ar    1  UNL1        0.0175
     11 C          59.8645   90.1907    7.7162 C.ar    1  UNL1        0.0117
     12 C          58.9139   89.6556    6.6866 C.ar    1  UNL1        0.0708
     13 C          58.7430   88.1746    6.5214 C.ar    1  UNL1        0.0412
     14 C          59.5228   87.2286    7.3858 C.ar    1  UNL1        0.1540
     15 F          59.3519   85.7476    7.2206 F       1  UNL1       -0.2028
     16 C          58.1342   90.6016    5.8223 C.1     1  UNL1        0.1005
     17 N          57.3544   91.5476    4.9579 N.1     1  UNL1       -0.1908
     18 C          63.0866   85.0744   15.6538 C.ar    1  UNL1        0.1061
     19 C          62.7548   83.7565   16.2885 C.ar    1  UNL1        0.0215
     20 C          62.7023   82.5130   15.4513 C.ar    1  UNL1        0.0384
     21 C          62.9814   82.5874   13.9795 C.ar    1  UNL1        0.1429
     22 C          63.3132   83.9053   13.3448 C.ar    1  UNL1        0.0887
     23 C          63.3658   85.1489   14.1820 C.ar    1  UNL1        0.0259
     24 C          63.1917   87.5615   17.3282 C.3     1  UNL1        0.1816
     25 S          63.1392   86.3180   16.4910 S.O2    1  UNL1        0.0105
     26 O          62.3087   85.6447   17.5432 O.2     1  UNL1       -0.1686
     27 O          63.9696   86.9912   15.4389 O.2     1  UNL1       -0.1686
     28 O          62.9289   81.3439   13.1423 O.3     1  UNL1       -0.4753
     29 C          62.3181   80.0913   13.6973 C.3     1  UNL1        0.2053
     30 C          60.8483   80.0408   13.9927 C.3     1  UNL1        0.0438
     31 C          59.5918   79.2486   14.2013 C.3     1  UNL1        0.0038
     32 C          59.5593   80.7453   14.2958 C.3     1  UNL1        0.0038
@<TRIPOS>BOND
     1    24    25    1
     2    25    26    2
     3    25    27    2
     4    25    18    1
     5    18    19   ar
     6    19    20   ar
     7    20    21   ar
     8    21    28    1
     9    28    29    1
    10    29    30    1
    11    30    31    1
    12    31    32    1
    13    21    22   ar
    14    22     1    1
    15     1     2    2
    16     1     3   am
    17     3     4    1
    18     4     5    1
    19     5     6    1
    20     6     9    1
    21     9    10   ar
    22    10    11   ar
    23    11    12   ar
    24    12    16    1
    25    16    17    3
    26    12    13   ar
    27    13    14   ar
    28    14    15    1
    29     6     7    1
    30     7     8    1
    31    22    23   ar
    32    23    18   ar
    33    32    30    1
    34     8     3    1
    35    14     9   ar
@<TRIPOS>MOLECULE
*****
 32 35 0 0 0
SMALL
GASTEIGER

@<TRIPOS>ATOM
      1 C          62.0597   86.0203   12.1622 C.2     1  UNL1        0.2521
      2 O          61.0038   86.3091   11.1367 O.2     1  UNL1       -0.2698
      3 N          62.8988   87.1365   12.7096 N.am    1  UNL1       -0.2725
      4 C          63.9546   86.8477   13.7352 C.3     1  UNL1        0.1151
      5 C          64.7938   87.9640   14.2826 C.3     1  UNL1        0.1124
      6 N          64.5770   89.3692   13.8046 N.pl3   1  UNL1       -0.3023
      7 C          63.5211   89.6580   12.7791 C.3     1  UNL1        0.1124
      8 C          62.6820   88.5418   12.2316 C.3     1  UNL1        0.1151
      9 C          65.4161   90.4854   14.3521 C.ar    1  UNL1        0.0758
     10 C          66.7271   90.8243   13.7067 C.ar    1  UNL1        0.0175
     11 C          67.5662   91.9407   14.2543 C.ar    1  UNL1        0.0117
     12 C          67.0944   92.7181   15.4471 C.ar    1  UNL1        0.0708
     13 C          65.7834   92.3792   16.0925 C.ar    1  UNL1        0.0412
     14 C          64.9443   91.2629   15.5450 C.ar    1  UNL1        0.1540
     15 F          63.6333   90.9240   16.1904 F       1  UNL1       -0.2028
     16 C          67.9335   93.8343   15.9946 C.1     1  UNL1        0.1005
     17 N          68.7726   94.9506   16.5422 N.1     1  UNL1       -0.1908
     18 C          62.7777   82.1172   12.1306 C.ar    1  UNL1        0.1061
     19 C          62.7099   81.8047   13.5961 C.ar    1  UNL1        0.0215
     20 C          62.4253   82.8973   14.5836 C.ar    1  UNL1        0.0384
     21 C          62.2086   84.3025   14.1057 C.ar    1  UNL1        0.1429
     22 C          62.2764   84.6150   12.6402 C.ar    1  UNL1        0.0887
     23 C          62.5609   83.5224   11.6527 C.ar    1  UNL1        0.0259
     24 C          63.3468   79.9320   10.1555 C.3     1  UNL1        0.1816
     25 S          63.0622   81.0246   11.1431 S.O2    1  UNL1        0.0105
     26 O          63.5281   82.0455   10.1478 O.2     1  UNL1       -0.1686
     27 O          62.5963   80.0037   12.1384 O.2     1  UNL1       -0.1686
     28 O          61.9240   85.3951   15.0932 O.3     1  UNL1       -0.4753
     29 C          62.3565   85.2462   16.5217 C.3     1  UNL1        0.2053
     30 C          62.6191   86.4644   17.3567 C.3     1  UNL1        0.0438
     31 C          62.7105   87.1224   18.7015 C.3     1  UNL1        0.0038
     32 C          62.9825   87.9161   17.4581 C.3     1  UNL1        0.0038
@<TRIPOS>BOND
     1    24    25    1
     2    25    26    2
     3    25    27    2
     4    25    18    1
     5    18    19   ar
     6    19    20   ar
     7    20    21   ar
     8    21    28    1
     9    28    29    1
    10    29    30    1
    11    30    31    1
    12    31    32    1
    13    21    22   ar
    14    22     1    1
    15     1     2    2
    16     1     3   am
    17     3     4    1
    18     4     5    1
    19     5     6    1
    20     6     9    1
    21     9    10   ar
    22    10    11   ar
    23    11    12   ar
    24    12    16    1
    25    16    17    3
    26    12    13   ar
    27    13    14   ar
    28    14    15    1
    29     6     7    1
    30     7     8    1
    31    22    23   ar
    32    23    18   ar
    33    32    30    1
    34     8     3    1
    35    14     9   ar
