@<TRIPOS>MOLECULE
*****
 29 32 0 0 0
SMALL
GASTEIGER

@<TRIPOS>ATOM
      1 C          63.8573   87.4642   13.9158 C.2     1  UNL1        0.3279
      2 N          64.5485   88.5456   14.6920 N.2     1  UNL1       -0.0020
      3 C          64.5624   89.9517   14.1698 C.2     1  UNL1        0.3351
      4 C          63.8850   90.2763   12.8714 C.2     1  UNL1        0.0880
      5 C          63.1938   89.1948   12.0952 C.2     1  UNL1        0.0161
      6 C          62.4465   89.2137   10.7947 C.2     1  UNL1       -0.0100
      7 C          62.2156   90.4159    9.9279 C.3     1  UNL1        0.0320
      8 C          61.9708   87.8192   10.5131 C.2     1  UNL1        0.0509
      9 C          61.1806   87.3822    9.3153 C.3     1  UNL1        0.0513
     10 N          62.4241   86.9386   11.6396 N.2     1  UNL1       -0.2602
     11 C          63.1799   87.7888   12.6174 C.3     1  UNL1        0.2298
     12 N          65.2537   91.0333   14.9460 N.am    1  UNL1       -0.1223
     13 C          66.6535   91.5230   14.7209 C.3     1  UNL1        0.2331
     14 C          66.9314   92.6074   15.7193 C.3     1  UNL1        0.1443
     15 N          65.7033   92.7878   16.5615 N.am    1  UNL1       -0.2643
     16 C          64.6664   91.8150   16.0836 C.2     1  UNL1        0.3956
     17 O          63.2849   91.6524   16.6447 O.2     1  UNL1       -0.2236
     18 H          65.5965   93.4317   17.2986 H       1  UNL1        0.1532
     19 N          63.8433   86.0580   14.4379 N.pl3   1  UNL1       -0.2166
     20 H          63.4987   85.8717   15.3411 H       1  UNL1        0.2923
     21 C          64.3545   84.9358   13.5839 C.3     1  UNL1        0.2258
     22 C          64.5207   83.3430   11.0471 C.3     1  UNL1        0.0308
     23 C          63.6298   82.8847   12.1635 C.ar    1  UNL1       -0.0223
     24 C          62.8220   81.6299   12.0114 C.ar    1  UNL1       -0.0045
     25 C          61.9311   81.1716   13.1278 C.ar    1  UNL1       -0.0007
     26 C          61.8480   81.9680   14.3962 C.ar    1  UNL1       -0.0045
     27 C          62.6558   83.2227   14.5482 C.ar    1  UNL1       -0.0223
     28 C          62.5727   84.0191   15.8166 C.3     1  UNL1        0.0308
     29 C          63.5467   83.6811   13.4319 C.ar    1  UNL1        0.0162
@<TRIPOS>BOND
     1    22    23    1
     2    23    24   ar
     3    24    25   ar
     4    25    26   ar
     5    26    27   ar
     6    27    28    1
     7    27    29   ar
     8    29    21    1
     9    21    19    1
    10    19     1    1
    11     1     2    2
    12     2     3    1
    13     3    12    1
    14    12    13    1
    15    13    14    1
    16    14    15    1
    17    15    16   am
    18    16    17    2
    19     3     4    2
    20     4     5    1
    21     5     6    2
    22     6     7    1
    23     6     8    1
    24     8     9    1
    25     8    10    2
    26    10    11    1
    27    29    23   ar
    28    11     1    1
    29    16    12   am
    30    11     5    1
    31    19    20    1
    32    15    18    1
@<TRIPOS>MOLECULE
*****
 29 32 0 0 0
SMALL
GASTEIGER

@<TRIPOS>ATOM
      1 C          62.2685   88.2147   11.6739 C.2     1  UNL1        0.3279
      2 N          62.8152   86.9694   12.3065 N.2     1  UNL1       -0.0020
      3 C          62.5757   85.6350   11.6647 C.2     1  UNL1        0.3351
      4 C          61.7895   85.5459   10.3903 C.2     1  UNL1        0.0880
      5 C          61.2429   86.7913    9.7577 C.2     1  UNL1        0.0161
      6 C          60.4370   87.0139    8.5123 C.2     1  UNL1       -0.0100
      7 C          59.9715   85.9510    7.5617 C.3     1  UNL1        0.0320
      8 C          60.1785   88.4859    8.3844 C.2     1  UNL1        0.0509
      9 C          59.4090   89.1535    7.2833 C.3     1  UNL1        0.0513
     10 N          60.8245   89.1731    9.5507 N.2     1  UNL1       -0.2602
     11 C          61.4824   88.1257   10.3995 C.3     1  UNL1        0.2298
     12 N          63.1223   84.3895   12.2973 N.am    1  UNL1       -0.1223
     13 C          63.9845   83.3637   11.6233 C.3     1  UNL1        0.2331
     14 C          64.2978   82.2915   12.6244 C.3     1  UNL1        0.1443
     15 N          63.6292   82.6546   13.9171 N.am    1  UNL1       -0.2643
     16 C          62.9027   83.9513   13.7149 C.2     1  UNL1        0.3956
     17 O          62.0980   84.6815   14.7489 O.2     1  UNL1       -0.2236
     18 H          63.6615   82.1335   14.7517 H       1  UNL1        0.1532
     19 N          62.5080   89.5492   12.3157 N.pl3   1  UNL1       -0.2166
     20 H          61.9966   89.8096   13.1156 H       1  UNL1        0.2923
     21 C          63.5267   90.4870   11.7386 C.3     1  UNL1        0.2258
     22 C          65.0896   92.8270   10.6987 C.3     1  UNL1        0.0308
     23 C          65.2482   92.3939   12.1260 C.ar    1  UNL1       -0.0223
     24 C          66.1882   93.1308   13.0335 C.ar    1  UNL1       -0.0045
     25 C          66.3468   92.6976   14.4607 C.ar    1  UNL1       -0.0007
     26 C          65.5653   91.5276   14.9807 C.ar    1  UNL1       -0.0045
     27 C          64.6253   90.7907   14.0733 C.ar    1  UNL1       -0.0223
     28 C          63.8438   89.6207   14.5933 C.3     1  UNL1        0.0308
     29 C          64.4667   91.2238   12.6460 C.ar    1  UNL1        0.0162
@<TRIPOS>BOND
     1    22    23    1
     2    23    24   ar
     3    24    25   ar
     4    25    26   ar
     5    26    27   ar
     6    27    28    1
     7    27    29   ar
     8    29    21    1
     9    21    19    1
    10    19     1    1
    11     1     2    2
    12     2     3    1
    13     3    12    1
    14    12    13    1
    15    13    14    1
    16    14    15    1
    17    15    16   am
    18    16    17    2
    19     3     4    2
    20     4     5    1
    21     5     6    2
    22     6     7    1
    23     6     8    1
    24     8     9    1
    25     8    10    2
    26    10    11    1
    27    29    23   ar
    28    11     1    1
    29    16    12   am
    30    11     5    1
    31    19    20    1
    32    15    18    1
@<TRIPOS>MOLECULE
*****
 29 32 0 0 0
SMALL
GASTEIGER

@<TRIPOS>ATOM
      1 C          62.2555   88.2217   11.6652 C.2     1  UNL1        0.3279
      2 N          62.8055   86.9784   12.2988 N.2     1  UNL1       -0.0020
      3 C          62.5703   85.6429   11.6577 C.2     1  UNL1        0.3351
      4 C          61.7851   85.5507   10.3830 C.2     1  UNL1        0.0880
      5 C          61.2351   86.7941    9.7493 C.2     1  UNL1        0.0161
      6 C          60.4293   87.0136    8.5034 C.2     1  UNL1       -0.0100
      7 C          59.9674   85.9488    7.5532 C.3     1  UNL1        0.0320
      8 C          60.1665   88.4847    8.3744 C.2     1  UNL1        0.0509
      9 C          59.3956   89.1494    7.2726 C.3     1  UNL1        0.0513
     10 N          60.8099   89.1745    9.5407 N.2     1  UNL1       -0.2602
     11 C          61.4703   88.1296   10.3905 C.3     1  UNL1        0.2298
     12 N          63.1203   84.3994   12.2913 N.am    1  UNL1       -0.1223
     13 C          63.9949   83.3813   11.6216 C.3     1  UNL1        0.2331
     14 C          64.3074   82.3085   12.6223 C.3     1  UNL1        0.1443
     15 N          63.6259   82.6635   13.9106 N.am    1  UNL1       -0.2643
     16 C          62.8922   83.9558   13.7060 C.2     1  UNL1        0.3956
     17 O          62.0742   84.6777   14.7354 O.2     1  UNL1       -0.2236
     18 H          63.6550   82.1403   14.7440 H       1  UNL1        0.1532
     19 N          62.4907   89.5573   12.3063 N.pl3   1  UNL1       -0.2166
     20 H          61.9760   89.8179   13.1040 H       1  UNL1        0.2923
     21 C          63.5103   90.4958   11.7320 C.3     1  UNL1        0.2258
     22 C          63.8007   89.6417   14.5931 C.3     1  UNL1        0.0308
     23 C          64.5973   90.8008   14.0719 C.ar    1  UNL1       -0.0223
     24 C          65.5392   91.5330   14.9813 C.ar    1  UNL1       -0.0045
     25 C          66.3358   92.6922   14.4601 C.ar    1  UNL1       -0.0007
     26 C          66.1906   93.1192   13.0295 C.ar    1  UNL1       -0.0045
     27 C          65.2487   92.3871   12.1201 C.ar    1  UNL1       -0.0223
     28 C          65.1035   92.8142   10.6896 C.3     1  UNL1        0.0308
     29 C          64.4521   91.2279   12.6413 C.ar    1  UNL1        0.0162
@<TRIPOS>BOND
     1    22    23    1
     2    23    24   ar
     3    24    25   ar
     4    25    26   ar
     5    26    27   ar
     6    27    28    1
     7    27    29   ar
     8    29    21    1
     9    21    19    1
    10    19     1    1
    11     1     2    2
    12     2     3    1
    13     3    12    1
    14    12    13    1
    15    13    14    1
    16    14    15    1
    17    15    16   am
    18    16    17    2
    19     3     4    2
    20     4     5    1
    21     5     6    2
    22     6     7    1
    23     6     8    1
    24     8     9    1
    25     8    10    2
    26    10    11    1
    27    29    23   ar
    28    11     1    1
    29    16    12   am
    30    11     5    1
    31    19    20    1
    32    15    18    1
@<TRIPOS>MOLECULE
*****
 29 32 0 0 0
SMALL
GASTEIGER

@<TRIPOS>ATOM
      1 C          63.0184   87.7393   12.4540 C.2     1  UNL1        0.3279
      2 N          62.1581   88.0484   11.2647 N.2     1  UNL1       -0.0020
      3 C          61.4954   86.9351   10.5089 C.2     1  UNL1        0.3351
      4 C          61.6930   85.5127   10.9424 C.2     1  UNL1        0.0880
      5 C          62.5532   85.2037   12.1316 C.2     1  UNL1        0.0161
      6 C          62.9293   83.9090   12.7891 C.2     1  UNL1       -0.0100
      7 C          62.4877   82.5413   12.3598 C.3     1  UNL1        0.0320
      8 C          63.8245   84.2221   13.9513 C.2     1  UNL1        0.0509
      9 C          64.4352   83.2224   14.8882 C.3     1  UNL1        0.0513
     10 N          64.0016   85.7103   14.0121 N.2     1  UNL1       -0.2602
     11 C          63.2159   86.3170   12.8874 C.3     1  UNL1        0.2298
     12 N          60.6351   87.2441    9.3196 N.am    1  UNL1       -0.1223
     13 C          60.2348   86.2764    8.2457 C.3     1  UNL1        0.2331
     14 C          59.3763   87.0093    7.2578 C.3     1  UNL1        0.1443
     15 N          59.2461   88.4301    7.7212 N.am    1  UNL1       -0.2643
     16 C          60.0241   88.5751    8.9954 C.2     1  UNL1        0.3956
     17 O          60.1661   89.8308    9.8036 O.2     1  UNL1       -0.2236
     18 H          58.7391   89.1422    7.2684 H       1  UNL1        0.1532
     19 N          63.6812   88.8527   13.2099 N.pl3   1  UNL1       -0.2166
     20 H          64.3835   88.6501   13.8693 H       1  UNL1        0.2923
     21 C          63.2737   90.2747   12.9610 C.3     1  UNL1        0.2258
     22 C          65.3346   91.2704   14.9004 C.3     1  UNL1        0.0308
     23 C          65.3251   91.7789   13.4893 C.ar    1  UNL1       -0.0223
     24 C          66.3460   92.7854   13.0478 C.ar    1  UNL1       -0.0045
     25 C          66.3364   93.2939   11.6367 C.ar    1  UNL1       -0.0007
     26 C          65.3060   92.7961   10.6670 C.ar    1  UNL1       -0.0045
     27 C          64.2851   91.7897   11.1084 C.ar    1  UNL1       -0.0223
     28 C          63.2547   91.2918   10.1387 C.3     1  UNL1        0.0308
     29 C          64.2946   91.2811   12.5196 C.ar    1  UNL1        0.0162
@<TRIPOS>BOND
     1    22    23    1
     2    23    24   ar
     3    24    25   ar
     4    25    26   ar
     5    26    27   ar
     6    27    28    1
     7    27    29   ar
     8    29    21    1
     9    21    19    1
    10    19     1    1
    11     1     2    2
    12     2     3    1
    13     3    12    1
    14    12    13    1
    15    13    14    1
    16    14    15    1
    17    15    16   am
    18    16    17    2
    19     3     4    2
    20     4     5    1
    21     5     6    2
    22     6     7    1
    23     6     8    1
    24     8     9    1
    25     8    10    2
    26    10    11    1
    27    29    23   ar
    28    11     1    1
    29    16    12   am
    30    11     5    1
    31    19    20    1
    32    15    18    1
@<TRIPOS>MOLECULE
*****
 29 32 0 0 0
SMALL
GASTEIGER

@<TRIPOS>ATOM
      1 C          63.1653   86.7613   12.8565 C.2     1  UNL1        0.3279
      2 N          62.3528   86.3465   11.6658 N.2     1  UNL1       -0.0020
      3 C          61.9593   87.3631   10.6354 C.2     1  UNL1        0.3351
      4 C          62.3783   88.7944   10.7957 C.2     1  UNL1        0.0880
      5 C          63.1908   89.2092   11.9864 C.2     1  UNL1        0.0161
      6 C          63.7454   90.5370   12.4099 C.2     1  UNL1       -0.0100
      7 C          63.5908   91.8332   11.6710 C.3     1  UNL1        0.0320
      8 C          64.4817   90.3411   13.7020 C.2     1  UNL1        0.0509
      9 C          65.1927   91.4070   14.4820 C.3     1  UNL1        0.0513
     10 N          64.3821   88.8922   14.0771 N.2     1  UNL1       -0.2602
     11 C          63.5843   88.1926   13.0168 C.3     1  UNL1        0.2298
     12 N          61.1468   86.9483    9.4446 N.am    1  UNL1       -0.1223
     13 C          59.7635   87.4236    9.1123 C.3     1  UNL1        0.2331
     14 C          59.3367   86.7545    7.8395 C.3     1  UNL1        0.1443
     15 N          60.4564   85.8656    7.3851 N.am    1  UNL1       -0.2643
     16 C          61.5750   85.9855    8.3771 C.2     1  UNL1        0.3956
     17 O          62.8909   85.2683    8.3130 O.2     1  UNL1       -0.2236
     18 H          60.4569   85.3025    6.5775 H       1  UNL1        0.1532
     19 N          63.5589   85.7447   13.8869 N.pl3   1  UNL1       -0.2166
     20 H          63.3356   85.8923   14.8343 H       1  UNL1        0.2923
     21 C          64.2925   84.5033   13.4738 C.3     1  UNL1        0.2258
     22 C          64.5227   82.9516   10.9166 C.3     1  UNL1        0.0308
     23 C          63.6633   82.4354   12.0323 C.ar    1  UNL1       -0.0223
     24 C          62.9188   81.1434   11.8695 C.ar    1  UNL1       -0.0045
     25 C          62.0593   80.6273   12.9852 C.ar    1  UNL1       -0.0007
     26 C          61.9442   81.4032   14.2638 C.ar    1  UNL1       -0.0045
     27 C          62.6886   82.6952   14.4266 C.ar    1  UNL1       -0.0223
     28 C          62.5735   83.4710   15.7052 C.3     1  UNL1        0.0308
     29 C          63.5481   83.2113   13.3109 C.ar    1  UNL1        0.0162
@<TRIPOS>BOND
     1    22    23    1
     2    23    24   ar
     3    24    25   ar
     4    25    26   ar
     5    26    27   ar
     6    27    28    1
     7    27    29   ar
     8    29    21    1
     9    21    19    1
    10    19     1    1
    11     1     2    2
    12     2     3    1
    13     3    12    1
    14    12    13    1
    15    13    14    1
    16    14    15    1
    17    15    16   am
    18    16    17    2
    19     3     4    2
    20     4     5    1
    21     5     6    2
    22     6     7    1
    23     6     8    1
    24     8     9    1
    25     8    10    2
    26    10    11    1
    27    29    23   ar
    28    11     1    1
    29    16    12   am
    30    11     5    1
    31    19    20    1
    32    15    18    1
@<TRIPOS>MOLECULE
*****
 29 32 0 0 0
SMALL
GASTEIGER

@<TRIPOS>ATOM
      1 C          62.2666   87.0169   11.8984 C.2     1  UNL1        0.3279
      2 N          63.1181   88.1287   12.4357 N.2     1  UNL1       -0.0020
      3 C          63.1255   89.4645   11.7534 C.2     1  UNL1        0.3351
      4 C          62.2815   89.6885   10.5338 C.2     1  UNL1        0.0880
      5 C          61.4299   88.5767    9.9965 C.2     1  UNL1        0.0161
      6 C          60.5012   88.5020    8.8210 C.2     1  UNL1       -0.0100
      7 C          60.2058   89.6140    7.8587 C.3     1  UNL1        0.0320
      8 C          59.9197   87.1199    8.7768 C.2     1  UNL1        0.0509
      9 C          58.9407   86.6073    7.7624 C.3     1  UNL1        0.0513
     10 N          60.4891   86.3405    9.9249 N.2     1  UNL1       -0.2602
     11 C          61.4225   87.2409   10.6788 C.3     1  UNL1        0.2298
     12 N          63.9771   90.5764   12.2907 N.am    1  UNL1       -0.1223
     13 C          64.5180   91.7325   11.5027 C.3     1  UNL1        0.2331
     14 C          65.3124   92.5980   12.4353 C.3     1  UNL1        0.1443
     15 N          65.2625   91.9768   13.7998 N.am    1  UNL1       -0.2643
     16 C          64.4373   90.7274   13.7104 C.2     1  UNL1        0.3956
     17 O          64.1267   89.7931   14.8420 O.2     1  UNL1       -0.2236
     18 H          65.6954   92.3276   14.6114 H       1  UNL1        0.1532
     19 N          62.2591   85.6810   12.5806 N.pl3   1  UNL1       -0.2166
     20 H          61.4820   85.4081   13.1199 H       1  UNL1        0.2923
     21 C          63.4357   84.7612   12.4413 C.3     1  UNL1        0.2258
     22 C          63.8734   83.3914    9.8084 C.3     1  UNL1        0.0308
     23 C          63.4396   82.5967   11.0043 C.ar    1  UNL1       -0.0223
     24 C          63.2247   81.1170   10.8838 C.ar    1  UNL1       -0.0045
     25 C          62.7909   80.3223   12.0797 C.ar    1  UNL1       -0.0007
     26 C          62.5721   81.0072   13.3961 C.ar    1  UNL1       -0.0045
     27 C          62.7870   82.4868   13.5167 C.ar    1  UNL1       -0.0223
     28 C          62.5681   83.1716   14.8331 C.3     1  UNL1        0.0308
     29 C          63.2208   83.2816   12.3207 C.ar    1  UNL1        0.0162
@<TRIPOS>BOND
     1    22    23    1
     2    23    24   ar
     3    24    25   ar
     4    25    26   ar
     5    26    27   ar
     6    27    28    1
     7    27    29   ar
     8    29    21    1
     9    21    19    1
    10    19     1    1
    11     1     2    2
    12     2     3    1
    13     3    12    1
    14    12    13    1
    15    13    14    1
    16    14    15    1
    17    15    16   am
    18    16    17    2
    19     3     4    2
    20     4     5    1
    21     5     6    2
    22     6     7    1
    23     6     8    1
    24     8     9    1
    25     8    10    2
    26    10    11    1
    27    29    23   ar
    28    11     1    1
    29    16    12   am
    30    11     5    1
    31    19    20    1
    32    15    18    1
@<TRIPOS>MOLECULE
*****
 29 32 0 0 0
SMALL
GASTEIGER

@<TRIPOS>ATOM
      1 C          62.2421   86.9427   11.9786 C.2     1  UNL1        0.3279
      2 N          63.1019   88.0293   12.5531 N.2     1  UNL1       -0.0020
      3 C          63.1331   89.3821   11.9060 C.2     1  UNL1        0.3351
      4 C          62.3044   89.6484   10.6844 C.2     1  UNL1        0.0880
      5 C          61.4446   88.5619   10.1099 C.2     1  UNL1        0.0161
      6 C          60.5271   88.5295    8.9237 C.2     1  UNL1       -0.0100
      7 C          60.2555   89.6698    7.9878 C.3     1  UNL1        0.0320
      8 C          59.9289   87.1566    8.8376 C.2     1  UNL1        0.0509
      9 C          58.9540   86.6831    7.8006 C.3     1  UNL1        0.0513
     10 N          60.4766   86.3405    9.9707 N.2     1  UNL1       -0.2602
     11 C          61.4134   87.2090   10.7570 C.3     1  UNL1        0.2298
     12 N          63.9929   90.4687   12.4806 N.am    1  UNL1       -0.1223
     13 C          64.5483   90.5100   13.8733 C.3     1  UNL1        0.2331
     14 C          65.3469   91.7716   14.0167 C.3     1  UNL1        0.1443
     15 N          65.2851   92.5101   12.7125 N.am    1  UNL1       -0.2643
     16 C          64.4483   91.7048   11.7631 C.2     1  UNL1        0.3956
     17 O          64.1238   92.0714   10.3453 O.2     1  UNL1       -0.2236
     18 H          65.7178   93.3719   12.5144 H       1  UNL1        0.1532
     19 N          62.2109   85.5898   12.6257 N.pl3   1  UNL1       -0.2166
     20 H          61.4128   85.3010   13.1246 H       1  UNL1        0.2923
     21 C          63.3957   84.6769   12.5126 C.3     1  UNL1        0.2258
     22 C          62.4995   83.1162   14.9129 C.3     1  UNL1        0.0308
     23 C          62.7449   82.4139   13.6104 C.ar    1  UNL1       -0.0223
     24 C          62.5422   80.9311   13.5081 C.ar    1  UNL1       -0.0045
     25 C          62.7876   80.2287   12.2056 C.ar    1  UNL1       -0.0007
     26 C          63.2357   81.0090   11.0055 C.ar    1  UNL1       -0.0045
     27 C          63.4384   82.4917   11.1078 C.ar    1  UNL1       -0.0223
     28 C          63.8865   83.2720    9.9077 C.3     1  UNL1        0.0308
     29 C          63.1930   83.1942   12.4103 C.ar    1  UNL1        0.0162
@<TRIPOS>BOND
     1    22    23    1
     2    23    24   ar
     3    24    25   ar
     4    25    26   ar
     5    26    27   ar
     6    27    28    1
     7    27    29   ar
     8    29    21    1
     9    21    19    1
    10    19     1    1
    11     1     2    2
    12     2     3    1
    13     3    12    1
    14    12    13    1
    15    13    14    1
    16    14    15    1
    17    15    16   am
    18    16    17    2
    19     3     4    2
    20     4     5    1
    21     5     6    2
    22     6     7    1
    23     6     8    1
    24     8     9    1
    25     8    10    2
    26    10    11    1
    27    29    23   ar
    28    11     1    1
    29    16    12   am
    30    11     5    1
    31    19    20    1
    32    15    18    1
@<TRIPOS>MOLECULE
*****
 29 32 0 0 0
SMALL
GASTEIGER

@<TRIPOS>ATOM
      1 C          63.3392   91.1541   11.2100 C.2     1  UNL1        0.3279
      2 N          64.2423   92.0619   10.4288 N.2     1  UNL1       -0.0020
      3 C          65.3987   92.7344   11.1072 C.2     1  UNL1        0.3351
      4 C          65.6521   92.4991   12.5668 C.2     1  UNL1        0.0880
      5 C          64.7490   91.5913   13.3480 C.2     1  UNL1        0.0161
      6 C          64.7496   91.1715   14.7880 C.2     1  UNL1       -0.0100
      7 C          65.7335   91.6072   15.8330 C.3     1  UNL1        0.0320
      8 C          63.5934   90.2395   14.9996 C.2     1  UNL1        0.0509
      9 C          63.2183   89.5795   16.2934 C.3     1  UNL1        0.0513
     10 N          62.8783   90.0833   13.6904 N.2     1  UNL1       -0.2602
     11 C          63.5925   90.9188   12.6696 C.3     1  UNL1        0.2298
     12 N          66.3019   93.6422   10.3260 N.am    1  UNL1       -0.1223
     13 C          66.1129   95.1170   10.1283 C.3     1  UNL1        0.2331
     14 C          67.2468   95.6209    9.2855 C.3     1  UNL1        0.1443
     15 N          68.1367   94.4574    8.9623 N.am    1  UNL1       -0.2643
     16 C          67.5527   93.2345    9.6054 C.2     1  UNL1        0.3956
     17 O          68.1199   91.8475    9.5394 O.2     1  UNL1       -0.2236
     18 H          68.9596   94.4905    8.4228 H       1  UNL1        0.1532
     19 N          62.1826   90.4815   10.5316 N.pl3   1  UNL1       -0.2166
     20 H          61.8381   90.8352    9.6798 H       1  UNL1        0.2923
     21 C          61.5511   89.2701   11.1509 C.3     1  UNL1        0.2258
     22 C          63.0428   86.9167   12.2627 C.3     1  UNL1        0.0308
     23 C          62.2958   86.7878   10.9684 C.ar    1  UNL1       -0.0223
     24 C          62.2946   85.4821   10.2299 C.ar    1  UNL1       -0.0045
     25 C          61.5475   85.3532    8.9356 C.ar    1  UNL1       -0.0007
     26 C          60.8016   86.5299    8.3797 C.ar    1  UNL1       -0.0045
     27 C          60.8028   87.8356    9.1181 C.ar    1  UNL1       -0.0223
     28 C          60.0569   89.0123    8.5623 C.3     1  UNL1        0.0308
     29 C          61.5499   87.9645   10.4125 C.ar    1  UNL1        0.0162
@<TRIPOS>BOND
     1    22    23    1
     2    23    24   ar
     3    24    25   ar
     4    25    26   ar
     5    26    27   ar
     6    27    28    1
     7    27    29   ar
     8    29    21    1
     9    21    19    1
    10    19     1    1
    11     1     2    2
    12     2     3    1
    13     3    12    1
    14    12    13    1
    15    13    14    1
    16    14    15    1
    17    15    16   am
    18    16    17    2
    19     3     4    2
    20     4     5    1
    21     5     6    2
    22     6     7    1
    23     6     8    1
    24     8     9    1
    25     8    10    2
    26    10    11    1
    27    29    23   ar
    28    11     1    1
    29    16    12   am
    30    11     5    1
    31    19    20    1
    32    15    18    1
@<TRIPOS>MOLECULE
*****
 29 32 0 0 0
SMALL
GASTEIGER

@<TRIPOS>ATOM
      1 C          63.3300   89.7252   12.0186 C.2     1  UNL1        0.3279
      2 N          63.1122   88.7762   13.1596 N.2     1  UNL1       -0.0020
      3 C          63.7782   89.0258   14.4802 C.2     1  UNL1        0.3351
      4 C          64.6620   90.2244   14.6599 C.2     1  UNL1        0.0880
      5 C          64.8798   91.1734   13.5189 C.2     1  UNL1        0.0161
      6 C          65.6905   92.4297   13.3990 C.2     1  UNL1       -0.0100
      7 C          66.5204   93.0502   14.4836 C.3     1  UNL1        0.0320
      8 C          65.5256   92.9566   12.0043 C.2     1  UNL1        0.0509
      9 C          66.1617   94.1965   11.4493 C.3     1  UNL1        0.0513
     10 N          64.6130   92.0259   11.2621 N.2     1  UNL1       -0.2602
     11 C          64.2139   90.9237   12.1982 C.3     1  UNL1        0.2298
     12 N          63.5603   88.0768   15.6213 N.am    1  UNL1       -0.1223
     13 C          63.0118   88.4324   16.9714 C.3     1  UNL1        0.2331
     14 C          62.9653   87.1810   17.7971 C.3     1  UNL1        0.1443
     15 N          63.4851   86.0519   16.9573 N.am    1  UNL1       -0.2643
     16 C          63.8529   86.6056   15.6127 C.2     1  UNL1        0.3956
     17 O          64.4145   85.8251   14.4614 O.2     1  UNL1       -0.2236
     18 H          63.5700   85.1125   17.2392 H       1  UNL1        0.1532
     19 N          62.6641   89.4756   10.6979 N.pl3   1  UNL1       -0.2166
     20 H          62.2457   90.2207   10.2089 H       1  UNL1        0.2923
     21 C          62.6356   88.0908   10.1221 C.3     1  UNL1        0.2258
     22 C          60.1710   89.7937    9.9611 C.3     1  UNL1        0.0308
     23 C          60.2431   88.5046    9.1976 C.ar    1  UNL1       -0.0223
     24 C          59.0829   88.0670    8.3535 C.ar    1  UNL1       -0.0045
     25 C          59.1550   86.7779    7.5899 C.ar    1  UNL1       -0.0007
     26 C          60.3873   85.9265    7.6704 C.ar    1  UNL1       -0.0045
     27 C          61.5475   86.3640    8.5144 C.ar    1  UNL1       -0.0223
     28 C          62.7798   85.5126    8.5949 C.3     1  UNL1        0.0308
     29 C          61.4754   87.6532    9.2781 C.ar    1  UNL1        0.0162
@<TRIPOS>BOND
     1    22    23    1
     2    23    24   ar
     3    24    25   ar
     4    25    26   ar
     5    26    27   ar
     6    27    28    1
     7    27    29   ar
     8    29    21    1
     9    21    19    1
    10    19     1    1
    11     1     2    2
    12     2     3    1
    13     3    12    1
    14    12    13    1
    15    13    14    1
    16    14    15    1
    17    15    16   am
    18    16    17    2
    19     3     4    2
    20     4     5    1
    21     5     6    2
    22     6     7    1
    23     6     8    1
    24     8     9    1
    25     8    10    2
    26    10    11    1
    27    29    23   ar
    28    11     1    1
    29    16    12   am
    30    11     5    1
    31    19    20    1
    32    15    18    1
