@<TRIPOS>MOLECULE
*****
 31 34 0 0 0
SMALL
GASTEIGER

@<TRIPOS>ATOM
      1 O          62.5409   87.6502   11.1882 O.3     1  UNL1       -0.3822
      2 C          61.6094   87.4705   10.0263 C.3     1  UNL1        0.1164
      3 C          60.8996   86.8195    8.8764 C.3     1  UNL1        0.0487
      4 C          59.8752   87.5880    8.0953 C.3     1  UNL1        0.0714
      5 N          59.5608   89.0076    8.4641 N.3     1  UNL1       -0.2969
      6 C          60.2706   89.6586    9.6140 C.3     1  UNL1        0.0790
      7 C          61.2950   88.8901   10.3951 C.3     1  UNL1        0.1048
      8 H          63.0365   86.8294   11.3353 H       1  UNL1        0.2107
      9 H          58.5636   89.0429    8.6757 H       1  UNL1        0.1233
     10 C          62.2474   86.1133   10.0610 C.ar    1  UNL1        0.0046
     11 C          62.8985   85.5589    8.8287 C.ar    1  UNL1        0.0004
     12 C          63.5364   84.2018    8.8635 C.ar    1  UNL1        0.0317
     13 C          63.5233   83.3991   10.1306 C.ar    1  UNL1        0.1674
     14 F          64.1612   82.0419   10.1654 F       1  UNL1       -0.2018
     15 C          62.8722   83.9536   11.3629 C.ar    1  UNL1        0.1671
     16 F          62.8591   83.1509   12.6301 F       1  UNL1       -0.2018
     17 C          62.2343   85.3107   11.3281 C.ar    1  UNL1        0.0299
     18 C          62.0049   89.5410   11.5450 C.ar    1  UNL1        0.1640
     19 O          61.6942   89.3432   12.9990 O.2     1  UNL1       -0.3571
     20 N          62.6475   90.1840   13.7953 N.ar    1  UNL1       -0.0768
     21 C          63.5475   90.9016   12.8334 C.ar    1  UNL1        0.1296
     22 C          63.1503   90.5042   11.4426 C.ar    1  UNL1        0.0883
     23 BR         63.7868   90.9854   10.1725 Br      1  UNL1       -0.0444
     24 C          64.6509   91.8500   13.1983 C.ar    1  UNL1        0.0328
     25 C          65.2009   92.7923   12.1690 C.ar    1  UNL1        0.0025
     26 C          66.3042   93.7406   12.5337 C.ar    1  UNL1        0.0010
     27 C          66.8576   93.7467   13.9280 C.ar    1  UNL1        0.0122
     28 C          66.3076   92.8044   14.9574 C.ar    1  UNL1        0.0682
     29 CL         66.8609   92.8106   16.3515 Cl      1  UNL1       -0.0814
     30 C          65.2042   91.8561   14.5925 C.ar    1  UNL1        0.0697
     31 CL         64.6541   90.9137   15.6218 Cl      1  UNL1       -0.0813
@<TRIPOS>BOND
     1     2     1    1
     2     2    10    1
     3    10    11   ar
     4    11    12   ar
     5    12    13   ar
     6    13    14    1
     7    13    15   ar
     8    15    16    1
     9    15    17   ar
    10     2     3    1
    11     3     4    1
    12     4     5    1
    13     5     6    1
    14     6     7    1
    15     7    18    1
    16    18    19   ar
    17    19    20   ar
    18    20    21   ar
    19    21    24    1
    20    24    25   ar
    21    25    26   ar
    22    26    27   ar
    23    27    28   ar
    24    28    29    1
    25    28    30   ar
    26    30    31    1
    27    21    22   ar
    28    22    23    1
    29     7     2    1
    30    22    18   ar
    31    17    10   ar
    32    30    24   ar
    33     1     8    1
    34     5     9    1
@<TRIPOS>MOLECULE
*****
 31 34 0 0 0
SMALL
GASTEIGER

@<TRIPOS>ATOM
      1 O          64.1833   89.0105   13.0775 O.3     1  UNL1       -0.3822
      2 C          63.8449   88.8943   14.5343 C.3     1  UNL1        0.1164
      3 C          63.5334   88.2736   15.8638 C.3     1  UNL1        0.0487
      4 C          63.2617   89.1458   17.0535 C.3     1  UNL1        0.0714
      5 N          63.3016   90.6388   16.9136 N.3     1  UNL1       -0.2969
      6 C          63.6131   91.2595   15.5841 C.3     1  UNL1        0.0790
      7 C          63.8847   90.3872   14.3944 C.3     1  UNL1        0.1048
      8 H          64.2680   88.1238   12.6935 H       1  UNL1        0.2107
      9 H          64.0063   90.9772   17.5689 H       1  UNL1        0.1233
     10 C          63.9225   87.4416   14.1682 C.ar    1  UNL1        0.0046
     11 C          64.7131   86.4945   15.0213 C.ar    1  UNL1        0.0004
     12 C          64.7908   85.0419   14.6552 C.ar    1  UNL1        0.0317
     13 C          64.0779   84.5366   13.4360 C.ar    1  UNL1        0.1674
     14 F          64.1555   83.0840   13.0699 F       1  UNL1       -0.2018
     15 C          63.2873   85.4838   12.5829 C.ar    1  UNL1        0.1671
     16 F          62.5744   84.9784   11.3637 F       1  UNL1       -0.2018
     17 C          63.2096   86.9363   12.9490 C.ar    1  UNL1        0.0299
     18 C          64.1962   91.0078   13.0648 C.ar    1  UNL1        0.1640
     19 O          63.2677   91.0868   11.8893 O.2     1  UNL1       -0.3571
     20 N          63.9887   91.7862   10.7754 N.ar    1  UNL1       -0.0768
     21 C          65.3628   92.1395   11.2623 C.ar    1  UNL1        0.1296
     22 C          65.4911   91.6585   12.6772 C.ar    1  UNL1        0.0883
     23 BR         66.7016   91.8027   13.5512 Br      1  UNL1       -0.0444
     24 C          66.4225   92.8493   10.4728 C.ar    1  UNL1        0.0328
     25 C          67.5608   92.0740    9.8787 C.ar    1  UNL1        0.0025
     26 C          68.6205   92.7837    9.0893 C.ar    1  UNL1        0.0010
     27 C          68.5420   94.2689    8.8940 C.ar    1  UNL1        0.0122
     28 C          67.4036   95.0443    9.4882 C.ar    1  UNL1        0.0682
     29 CL         67.3251   96.5294    9.2930 Cl      1  UNL1       -0.0814
     30 C          66.3439   94.3345   10.2776 C.ar    1  UNL1        0.0697
     31 CL         65.2056   95.1099   10.8718 Cl      1  UNL1       -0.0813
@<TRIPOS>BOND
     1     2     1    1
     2     2    10    1
     3    10    11   ar
     4    11    12   ar
     5    12    13   ar
     6    13    14    1
     7    13    15   ar
     8    15    16    1
     9    15    17   ar
    10     2     3    1
    11     3     4    1
    12     4     5    1
    13     5     6    1
    14     6     7    1
    15     7    18    1
    16    18    19   ar
    17    19    20   ar
    18    20    21   ar
    19    21    24    1
    20    24    25   ar
    21    25    26   ar
    22    26    27   ar
    23    27    28   ar
    24    28    29    1
    25    28    30   ar
    26    30    31    1
    27    21    22   ar
    28    22    23    1
    29     7     2    1
    30    22    18   ar
    31    17    10   ar
    32    30    24   ar
    33     1     8    1
    34     5     9    1
@<TRIPOS>MOLECULE
*****
 31 34 0 0 0
SMALL
GASTEIGER

@<TRIPOS>ATOM
      1 O          64.0274   88.9395   13.1183 O.3     1  UNL1       -0.3822
      2 C          63.4596   89.8995   12.1152 C.3     1  UNL1        0.1164
      3 C          63.1966   91.1826   11.3843 C.3     1  UNL1        0.0487
      4 C          62.2533   91.2018   10.2182 C.3     1  UNL1        0.0714
      5 N          61.5729   89.9378    9.7831 N.3     1  UNL1       -0.2969
      6 C          61.8359   88.6546   10.5140 C.3     1  UNL1        0.0790
      7 C          62.7793   88.6354   11.6801 C.3     1  UNL1        0.1048
      8 H          64.6320   89.4119   13.7117 H       1  UNL1        0.2107
      9 H          61.8361   89.7817    8.8101 H       1  UNL1        0.1233
     10 C          64.3372   90.8301   12.8987 C.ar    1  UNL1        0.0046
     11 C          64.5533   90.6005   14.3652 C.ar    1  UNL1        0.0004
     12 C          65.4309   91.5311   15.1486 C.ar    1  UNL1        0.0317
     13 C          66.0923   92.6913   14.4656 C.ar    1  UNL1        0.1674
     14 F          66.9698   93.6220   15.2492 F       1  UNL1       -0.2018
     15 C          65.8761   92.9209   12.9992 C.ar    1  UNL1        0.1671
     16 F          66.5375   94.0811   12.3162 F       1  UNL1       -0.2018
     17 C          64.9986   91.9903   12.2157 C.ar    1  UNL1        0.0299
     18 C          63.0423   87.3523   12.4110 C.ar    1  UNL1        0.1640
     19 O          63.8663   87.1991   13.6550 O.2     1  UNL1       -0.3571
     20 N          63.8607   85.7492   14.0390 N.ar    1  UNL1       -0.0768
     21 C          63.0333   85.0061   13.0325 C.ar    1  UNL1        0.1296
     22 C          62.5275   85.9969   12.0263 C.ar    1  UNL1        0.0883
     23 BR         61.6592   85.6869   10.8430 Br      1  UNL1       -0.0444
     24 C          62.7597   83.5313   13.0321 C.ar    1  UNL1        0.0328
     25 C          62.0940   82.8916   14.2143 C.ar    1  UNL1        0.0025
     26 C          61.8204   81.4169   14.2139 C.ar    1  UNL1        0.0010
     27 C          62.2125   80.5816   13.0312 C.ar    1  UNL1        0.0122
     28 C          62.8783   81.2212   11.8490 C.ar    1  UNL1        0.0682
     29 CL         63.2704   80.3860   10.6664 Cl      1  UNL1       -0.0814
     30 C          63.1518   82.6961   11.8494 C.ar    1  UNL1        0.0697
     31 CL         63.8176   83.3357   10.6672 Cl      1  UNL1       -0.0813
@<TRIPOS>BOND
     1     2     1    1
     2     2    10    1
     3    10    11   ar
     4    11    12   ar
     5    12    13   ar
     6    13    14    1
     7    13    15   ar
     8    15    16    1
     9    15    17   ar
    10     2     3    1
    11     3     4    1
    12     4     5    1
    13     5     6    1
    14     6     7    1
    15     7    18    1
    16    18    19   ar
    17    19    20   ar
    18    20    21   ar
    19    21    24    1
    20    24    25   ar
    21    25    26   ar
    22    26    27   ar
    23    27    28   ar
    24    28    29    1
    25    28    30   ar
    26    30    31    1
    27    21    22   ar
    28    22    23    1
    29     7     2    1
    30    22    18   ar
    31    17    10   ar
    32    30    24   ar
    33     1     8    1
    34     5     9    1
@<TRIPOS>MOLECULE
*****
 31 34 0 0 0
SMALL
GASTEIGER

@<TRIPOS>ATOM
      1 O          63.7537   88.4635   13.1975 O.3     1  UNL1       -0.3822
      2 C          63.2380   89.5436   12.2933 C.3     1  UNL1        0.1164
      3 C          62.9728   90.9133   11.7424 C.3     1  UNL1        0.0487
      4 C          62.1655   91.0739   10.4884 C.3     1  UNL1        0.0714
      5 N          61.6236   89.8648    9.7853 N.3     1  UNL1       -0.2969
      6 C          61.8888   88.4951   10.3362 C.3     1  UNL1        0.0790
      7 C          62.6960   88.3345   11.5902 C.3     1  UNL1        0.1048
      8 H          64.2558   88.8631   13.9249 H       1  UNL1        0.2107
      9 H          62.0030   89.8800    8.8386 H       1  UNL1        0.1233
     10 C          63.9591   90.3776   13.3105 C.ar    1  UNL1        0.0046
     11 C          65.0852   91.2722   12.8846 C.ar    1  UNL1        0.0004
     12 C          65.8063   92.1062   13.9018 C.ar    1  UNL1        0.0317
     13 C          65.4012   92.0454   15.3448 C.ar    1  UNL1        0.1674
     14 F          66.1223   92.8794   16.3619 F       1  UNL1       -0.2018
     15 C          64.2750   91.1508   15.7706 C.ar    1  UNL1        0.1671
     16 F          63.8699   91.0900   17.2136 F       1  UNL1       -0.2018
     17 C          63.5540   90.3168   14.7534 C.ar    1  UNL1        0.0299
     18 C          62.9613   86.9648   12.1411 C.ar    1  UNL1        0.1640
     19 O          63.5242   86.6532   13.4962 O.2     1  UNL1       -0.3571
     20 N          63.6210   85.1621   13.6262 N.ar    1  UNL1       -0.0768
     21 C          63.1180   84.5519   12.3516 C.ar    1  UNL1        0.1296
     22 C          62.7103   85.6661   11.4337 C.ar    1  UNL1        0.0883
     23 BR         62.1499   85.5091   10.0512 Br      1  UNL1       -0.0444
     24 C          63.0369   83.0852   12.0480 C.ar    1  UNL1        0.0328
     25 C          63.4969   82.5681   10.7172 C.ar    1  UNL1        0.0025
     26 C          63.4159   81.1015   10.4136 C.ar    1  UNL1        0.0010
     27 C          62.8748   80.1517   11.4410 C.ar    1  UNL1        0.0122
     28 C          62.4148   80.6688   12.7718 C.ar    1  UNL1        0.0682
     29 CL         61.8737   79.7191   13.7990 Cl      1  UNL1       -0.0814
     30 C          62.4959   82.1355   13.0753 C.ar    1  UNL1        0.0697
     31 CL         62.0359   82.6526   14.4062 Cl      1  UNL1       -0.0813
@<TRIPOS>BOND
     1     2     1    1
     2     2    10    1
     3    10    11   ar
     4    11    12   ar
     5    12    13   ar
     6    13    14    1
     7    13    15   ar
     8    15    16    1
     9    15    17   ar
    10     2     3    1
    11     3     4    1
    12     4     5    1
    13     5     6    1
    14     6     7    1
    15     7    18    1
    16    18    19   ar
    17    19    20   ar
    18    20    21   ar
    19    21    24    1
    20    24    25   ar
    21    25    26   ar
    22    26    27   ar
    23    27    28   ar
    24    28    29    1
    25    28    30   ar
    26    30    31    1
    27    21    22   ar
    28    22    23    1
    29     7     2    1
    30    22    18   ar
    31    17    10   ar
    32    30    24   ar
    33     1     8    1
    34     5     9    1
@<TRIPOS>MOLECULE
*****
 31 34 0 0 0
SMALL
GASTEIGER

@<TRIPOS>ATOM
      1 O          63.1521   88.7699   11.2520 O.3     1  UNL1       -0.3822
      2 C          61.6756   88.5124   11.1907 C.3     1  UNL1        0.1164
      3 C          60.3786   87.7864   10.9890 C.3     1  UNL1        0.0487
      4 C          59.0777   88.4988   11.2127 C.3     1  UNL1        0.0714
      5 N          59.0737   89.9372   11.6380 N.3     1  UNL1       -0.2969
      6 C          60.3707   90.6632   11.8397 C.3     1  UNL1        0.0790
      7 C          61.6716   89.9508   11.6160 C.3     1  UNL1        0.1048
      8 H          63.6315   87.9626   11.0085 H       1  UNL1        0.2107
      9 H          58.5710   89.9808   12.5245 H       1  UNL1        0.1233
     10 C          62.1923   87.1634   10.7866 C.ar    1  UNL1        0.0046
     11 C          62.5370   86.1474   11.8349 C.ar    1  UNL1        0.0004
     12 C          63.0537   84.7985   11.4309 C.ar    1  UNL1        0.0317
     13 C          63.2258   84.4655    9.9785 C.ar    1  UNL1        0.1674
     14 F          63.7425   83.1165    9.5744 F       1  UNL1       -0.2018
     15 C          62.8811   85.4814    8.9301 C.ar    1  UNL1        0.1671
     16 F          63.0532   85.1484    7.4777 F       1  UNL1       -0.2018
     17 C          62.3644   86.8304    9.3342 C.ar    1  UNL1        0.0299
     18 C          62.9687   90.6768   11.8177 C.ar    1  UNL1        0.1640
     19 O          63.7313   91.4281   10.7669 O.2     1  UNL1       -0.3571
     20 N          64.9647   91.9944   11.4054 N.ar    1  UNL1       -0.0768
     21 C          64.9645   91.5933   12.8508 C.ar    1  UNL1        0.1296
     22 C          63.7309   90.7789   13.1056 C.ar    1  UNL1        0.0883
     23 BR         63.3298   90.1730   14.4179 Br      1  UNL1       -0.0444
     24 C          66.0137   91.9448   13.8636 C.ar    1  UNL1        0.0328
     25 C          65.6165   92.2702   15.2729 C.ar    1  UNL1        0.0025
     26 C          66.6656   92.6217   16.2857 C.ar    1  UNL1        0.0010
     27 C          68.1121   92.6477   15.8891 C.ar    1  UNL1        0.0122
     28 C          68.5093   92.3223   14.4797 C.ar    1  UNL1        0.0682
     29 CL         69.9556   92.3483   14.0831 Cl      1  UNL1       -0.0814
     30 C          67.4601   91.9708   13.4670 C.ar    1  UNL1        0.0697
     31 CL         67.8573   91.6454   12.0575 Cl      1  UNL1       -0.0813
@<TRIPOS>BOND
     1     2     1    1
     2     2    10    1
     3    10    11   ar
     4    11    12   ar
     5    12    13   ar
     6    13    14    1
     7    13    15   ar
     8    15    16    1
     9    15    17   ar
    10     2     3    1
    11     3     4    1
    12     4     5    1
    13     5     6    1
    14     6     7    1
    15     7    18    1
    16    18    19   ar
    17    19    20   ar
    18    20    21   ar
    19    21    24    1
    20    24    25   ar
    21    25    26   ar
    22    26    27   ar
    23    27    28   ar
    24    28    29    1
    25    28    30   ar
    26    30    31    1
    27    21    22   ar
    28    22    23    1
    29     7     2    1
    30    22    18   ar
    31    17    10   ar
    32    30    24   ar
    33     1     8    1
    34     5     9    1
@<TRIPOS>MOLECULE
*****
 31 34 0 0 0
SMALL
GASTEIGER

@<TRIPOS>ATOM
      1 O          64.1304   87.5111   13.7099 O.3     1  UNL1       -0.3822
      2 C          63.7156   88.4692   14.7870 C.3     1  UNL1        0.1164
      3 C          63.3259   89.7528   15.4581 C.3     1  UNL1        0.0487
      4 C          63.0082   89.7663   16.9240 C.3     1  UNL1        0.0714
      5 N          63.0802   88.4961   17.7188 N.3     1  UNL1       -0.2969
      6 C          63.4699   87.2126   17.0476 C.3     1  UNL1        0.0790
      7 C          63.7876   87.1990   15.5817 C.3     1  UNL1        0.1048
      8 H          64.2198   87.9879   12.8699 H       1  UNL1        0.2107
      9 H          62.1551   88.3484   18.1222 H       1  UNL1        0.1233
     10 C          63.7877   89.4066   13.6181 C.ar    1  UNL1        0.0046
     11 C          63.1037   89.0539   12.3306 C.ar    1  UNL1        0.0004
     12 C          63.1758   89.9913   11.1618 C.ar    1  UNL1        0.0317
     13 C          63.9318   91.2813   11.2806 C.ar    1  UNL1        0.1674
     14 F          64.0038   92.2187   10.1117 F       1  UNL1       -0.2018
     15 C          64.6157   91.6341   12.5681 C.ar    1  UNL1        0.1671
     16 F          65.3718   92.9242   12.6868 F       1  UNL1       -0.2018
     17 C          64.5437   90.6967   13.7369 C.ar    1  UNL1        0.0299
     18 C          64.1774   85.9155   14.9105 C.ar    1  UNL1        0.1640
     19 O          65.5620   85.5300   14.4811 O.2     1  UNL1       -0.3571
     20 N          65.4911   84.1683   13.8561 N.ar    1  UNL1       -0.0768
     21 C          64.0628   83.7121   13.8991 C.ar    1  UNL1        0.1296
     22 C          63.2509   84.7919   14.5508 C.ar    1  UNL1        0.0883
     23 BR         61.7720   84.7548   14.7992 Br      1  UNL1       -0.0444
     24 C          63.5385   82.4056   13.3814 C.ar    1  UNL1        0.0328
     25 C          62.9516   81.4038   14.3310 C.ar    1  UNL1        0.0025
     26 C          62.4273   80.0973   13.8134 C.ar    1  UNL1        0.0010
     27 C          62.4898   79.7925   12.3459 C.ar    1  UNL1        0.0122
     28 C          63.0768   80.7944   11.3962 C.ar    1  UNL1        0.0682
     29 CL         63.1393   80.4897    9.9289 Cl      1  UNL1       -0.0814
     30 C          63.6011   82.1009   11.9140 C.ar    1  UNL1        0.0697
     31 CL         64.1880   83.1028   10.9643 Cl      1  UNL1       -0.0813
@<TRIPOS>BOND
     1     2     1    1
     2     2    10    1
     3    10    11   ar
     4    11    12   ar
     5    12    13   ar
     6    13    14    1
     7    13    15   ar
     8    15    16    1
     9    15    17   ar
    10     2     3    1
    11     3     4    1
    12     4     5    1
    13     5     6    1
    14     6     7    1
    15     7    18    1
    16    18    19   ar
    17    19    20   ar
    18    20    21   ar
    19    21    24    1
    20    24    25   ar
    21    25    26   ar
    22    26    27   ar
    23    27    28   ar
    24    28    29    1
    25    28    30   ar
    26    30    31    1
    27    21    22   ar
    28    22    23    1
    29     7     2    1
    30    22    18   ar
    31    17    10   ar
    32    30    24   ar
    33     1     8    1
    34     5     9    1
@<TRIPOS>MOLECULE
*****
 31 34 0 0 0
SMALL
GASTEIGER

@<TRIPOS>ATOM
      1 O          64.4732   87.8661   13.7107 O.3     1  UNL1       -0.3822
      2 C          63.9183   88.7402   14.7961 C.3     1  UNL1        0.1164
      3 C          63.4276   89.9679   15.5044 C.3     1  UNL1        0.0487
      4 C          62.9447   89.8737   16.9215 C.3     1  UNL1        0.0714
      5 N          62.9525   88.5516   17.6301 N.3     1  UNL1       -0.2969
      6 C          63.4432   87.3239   16.9217 C.3     1  UNL1        0.0790
      7 C          63.9261   87.4181   15.5047 C.3     1  UNL1        0.1048
      8 H          64.6477   88.4022   12.9213 H       1  UNL1        0.2107
      9 H          61.9908   88.3636   17.9132 H       1  UNL1        0.1233
     10 C          64.1032   89.7587   13.7105 C.ar    1  UNL1        0.0046
     11 C          65.0468   90.9071   13.9123 C.ar    1  UNL1        0.0004
     12 C          65.2317   91.9255   12.8267 C.ar    1  UNL1        0.0317
     13 C          64.4731   91.7956   11.5393 C.ar    1  UNL1        0.1674
     14 F          64.6580   92.8141   10.4536 F       1  UNL1       -0.2018
     15 C          63.5295   90.6472   11.3374 C.ar    1  UNL1        0.1671
     16 F          62.7708   90.5172   10.0499 F       1  UNL1       -0.2018
     17 C          63.3446   89.6287   12.4230 C.ar    1  UNL1        0.0299
     18 C          64.4168   86.1904   14.7963 C.ar    1  UNL1        0.1640
     19 O          65.8060   85.6289   14.8646 O.2     1  UNL1       -0.3571
     20 N          65.8521   84.4001   14.0057 N.ar    1  UNL1       -0.0768
     21 C          64.4914   84.2021   13.4063 C.ar    1  UNL1        0.1296
     22 C          63.6043   85.3086   13.8949 C.ar    1  UNL1        0.0883
     23 BR         62.1585   85.4998   13.5439 Br      1  UNL1       -0.0444
     24 C          64.0884   83.0925   12.4809 C.ar    1  UNL1        0.0328
     25 C          64.3877   83.1929   11.0145 C.ar    1  UNL1        0.0025
     26 C          63.9848   82.0834   10.0891 C.ar    1  UNL1        0.0010
     27 C          63.2825   80.8733   10.6301 C.ar    1  UNL1        0.0122
     28 C          62.9832   80.7729   12.0965 C.ar    1  UNL1        0.0682
     29 CL         62.2811   79.5628   12.6374 Cl      1  UNL1       -0.0814
     30 C          63.3862   81.8825   13.0219 C.ar    1  UNL1        0.0697
     31 CL         63.0869   81.7821   14.4884 Cl      1  UNL1       -0.0813
@<TRIPOS>BOND
     1     2     1    1
     2     2    10    1
     3    10    11   ar
     4    11    12   ar
     5    12    13   ar
     6    13    14    1
     7    13    15   ar
     8    15    16    1
     9    15    17   ar
    10     2     3    1
    11     3     4    1
    12     4     5    1
    13     5     6    1
    14     6     7    1
    15     7    18    1
    16    18    19   ar
    17    19    20   ar
    18    20    21   ar
    19    21    24    1
    20    24    25   ar
    21    25    26   ar
    22    26    27   ar
    23    27    28   ar
    24    28    29    1
    25    28    30   ar
    26    30    31    1
    27    21    22   ar
    28    22    23    1
    29     7     2    1
    30    22    18   ar
    31    17    10   ar
    32    30    24   ar
    33     1     8    1
    34     5     9    1
@<TRIPOS>MOLECULE
*****
 31 34 0 0 0
SMALL
GASTEIGER

@<TRIPOS>ATOM
      1 O          64.4188   89.6533   12.9529 O.3     1  UNL1       -0.3822
      2 C          64.4427   90.4889   14.1985 C.3     1  UNL1        0.1164
      3 C          64.7377   91.6324   15.1232 C.3     1  UNL1        0.0487
      4 C          64.2435   91.5988   16.5390 C.3     1  UNL1        0.0714
      5 N          63.4541   90.4216   17.0301 N.3     1  UNL1       -0.2969
      6 C          63.1590   89.2781   16.1053 C.3     1  UNL1        0.0790
      7 C          63.6533   89.3116   14.6895 C.3     1  UNL1        0.1048
      8 H          64.8998   90.1122   12.2465 H       1  UNL1        0.2107
      9 H          62.5547   90.7824   17.3485 H       1  UNL1        0.1233
     10 C          65.2238   91.3759   13.2748 C.ar    1  UNL1        0.0046
     11 C          66.6214   91.7861   13.6327 C.ar    1  UNL1        0.0004
     12 C          67.4025   92.6731   12.7090 C.ar    1  UNL1        0.0317
     13 C          66.7859   93.1498   11.4274 C.ar    1  UNL1        0.1674
     14 F          67.5670   94.0368   10.5037 F       1  UNL1       -0.2018
     15 C          65.3882   92.7395   11.0695 C.ar    1  UNL1        0.1671
     16 F          64.7716   93.2162    9.7879 F       1  UNL1       -0.2018
     17 C          64.6072   91.8526   11.9931 C.ar    1  UNL1        0.0299
     18 C          63.3582   88.1681   13.7647 C.ar    1  UNL1        0.1640
     19 O          62.6473   88.2605   12.4471 O.2     1  UNL1       -0.3571
     20 N          62.5721   86.8809   11.8634 N.ar    1  UNL1       -0.0768
     21 C          63.2365   85.9357   12.8200 C.ar    1  UNL1        0.1296
     22 C          63.7224   86.7313   13.9952 C.ar    1  UNL1        0.0883
     23 BR         64.4455   86.1859   15.1909 Br      1  UNL1       -0.0444
     24 C          63.3884   84.4550   12.6343 C.ar    1  UNL1        0.0328
     25 C          64.2618   83.9224   11.5373 C.ar    1  UNL1        0.0025
     26 C          64.4137   82.4418   11.3515 C.ar    1  UNL1        0.0010
     27 C          63.6922   81.4937   12.2629 C.ar    1  UNL1        0.0122
     28 C          62.8187   82.0263   13.3600 C.ar    1  UNL1        0.0682
     29 CL         62.0973   81.0782   14.2712 Cl      1  UNL1       -0.0814
     30 C          62.6669   83.5070   13.5456 C.ar    1  UNL1        0.0697
     31 CL         61.7935   84.0396   14.6427 Cl      1  UNL1       -0.0813
@<TRIPOS>BOND
     1     2     1    1
     2     2    10    1
     3    10    11   ar
     4    11    12   ar
     5    12    13   ar
     6    13    14    1
     7    13    15   ar
     8    15    16    1
     9    15    17   ar
    10     2     3    1
    11     3     4    1
    12     4     5    1
    13     5     6    1
    14     6     7    1
    15     7    18    1
    16    18    19   ar
    17    19    20   ar
    18    20    21   ar
    19    21    24    1
    20    24    25   ar
    21    25    26   ar
    22    26    27   ar
    23    27    28   ar
    24    28    29    1
    25    28    30   ar
    26    30    31    1
    27    21    22   ar
    28    22    23    1
    29     7     2    1
    30    22    18   ar
    31    17    10   ar
    32    30    24   ar
    33     1     8    1
    34     5     9    1
@<TRIPOS>MOLECULE
*****
 31 34 0 0 0
SMALL
GASTEIGER

@<TRIPOS>ATOM
      1 O          63.0690   88.2735   11.9713 O.3     1  UNL1       -0.3822
      2 C          61.8807   88.4571   11.0744 C.3     1  UNL1        0.1164
      3 C          60.8287   88.1545   10.0489 C.3     1  UNL1        0.0487
      4 C          59.7971   89.1878    9.7053 C.3     1  UNL1        0.0714
      5 N          59.8175   90.5237   10.3873 N.3     1  UNL1       -0.2969
      6 C          60.8695   90.8262   11.4128 C.3     1  UNL1        0.0790
      7 C          61.9011   89.7929   11.7564 C.3     1  UNL1        0.1048
      8 H          63.4402   87.3872   11.8388 H       1  UNL1        0.2107
      9 H          58.9152   90.6317   10.8504 H       1  UNL1        0.1233
     10 C          62.2730   87.0574   10.7039 C.ar    1  UNL1        0.0046
     11 C          62.4528   86.0210   11.7732 C.ar    1  UNL1        0.0004
     12 C          62.8450   84.6214   11.4027 C.ar    1  UNL1        0.0317
     13 C          63.0575   84.2583    9.9629 C.ar    1  UNL1        0.1674
     14 F          63.4498   82.8586    9.5924 F       1  UNL1       -0.2018
     15 C          62.8777   85.2947    8.8936 C.ar    1  UNL1        0.1671
     16 F          63.0901   84.9316    7.4538 F       1  UNL1       -0.2018
     17 C          62.4854   86.6943    9.2641 C.ar    1  UNL1        0.0299
     18 C          62.9532   90.0954   12.7819 C.ar    1  UNL1        0.1640
     19 O          62.9158   89.6968   14.2275 O.2     1  UNL1       -0.3571
     20 N          64.1669   90.2047   14.8808 N.ar    1  UNL1       -0.0768
     21 C          64.9775   90.9171   13.8390 C.ar    1  UNL1        0.1296
     22 C          64.2274   90.8496   12.5418 C.ar    1  UNL1        0.0883
     23 BR         64.6731   91.4337   11.2341 Br      1  UNL1       -0.0444
     24 C          66.3051   91.5806   14.0563 C.ar    1  UNL1        0.0328
     25 C          67.4013   91.4137   13.0461 C.ar    1  UNL1        0.0025
     26 C          68.7289   92.0771   13.2633 C.ar    1  UNL1        0.0010
     27 C          68.9603   92.9077   14.4908 C.ar    1  UNL1        0.0122
     28 C          67.8641   93.0747   15.5010 C.ar    1  UNL1        0.0682
     29 CL         68.0956   93.9052   16.7284 Cl      1  UNL1       -0.0814
     30 C          66.5365   92.4112   15.2837 C.ar    1  UNL1        0.0697
     31 CL         65.4403   92.5782   16.2940 Cl      1  UNL1       -0.0813
@<TRIPOS>BOND
     1     2     1    1
     2     2    10    1
     3    10    11   ar
     4    11    12   ar
     5    12    13   ar
     6    13    14    1
     7    13    15   ar
     8    15    16    1
     9    15    17   ar
    10     2     3    1
    11     3     4    1
    12     4     5    1
    13     5     6    1
    14     6     7    1
    15     7    18    1
    16    18    19   ar
    17    19    20   ar
    18    20    21   ar
    19    21    24    1
    20    24    25   ar
    21    25    26   ar
    22    26    27   ar
    23    27    28   ar
    24    28    29    1
    25    28    30   ar
    26    30    31    1
    27    21    22   ar
    28    22    23    1
    29     7     2    1
    30    22    18   ar
    31    17    10   ar
    32    30    24   ar
    33     1     8    1
    34     5     9    1
