@<TRIPOS>MOLECULE
*****
 22 24 0 0 0
SMALL
GASTEIGER

@<TRIPOS>ATOM
      1 C          65.2408   91.6165   13.4452 C.ar    1  UNL1        0.0050
      2 S          65.0523   91.8998   11.9843 S.2     1  UNL1       -0.0915
      3 C          63.7918   91.2195   11.5390 C.ar    1  UNL1        0.0288
      4 C          63.1055   91.1499   10.2071 C.ar    1  UNL1        0.0065
      5 C          61.8285   90.3766   10.0609 C.ar    1  UNL1        0.0005
      6 C          61.2379   89.6729   11.2466 C.ar    1  UNL1        0.0000
      7 C          61.9242   89.7425   12.5786 C.ar    1  UNL1        0.0002
      8 C          63.2012   90.5158   12.7248 C.ar    1  UNL1        0.0025
      9 C          64.0967   90.7612   13.9028 C.ar    1  UNL1       -0.0144
     10 C          63.8852   90.2423   15.2942 C.3     1  UNL1        0.0627
     11 C          63.7394   91.2014   16.4384 C.3     1  UNL1        0.0110
     12 C          63.8195   88.7644   15.5417 C.ar    1  UNL1        0.0627
     13 C          64.4807   87.8140   14.5878 C.ar    1  UNL1        0.0151
     14 C          64.4150   86.3360   14.8351 C.ar    1  UNL1        0.0028
     15 C          63.6881   85.8083   16.0365 C.ar    1  UNL1        0.0207
     16 C          63.0270   86.7586   16.9904 C.ar    1  UNL1        0.0985
     17 N          63.0927   88.2365   16.7430 N.ar    1  UNL1       -0.2478
     18 C          66.3743   92.1032   14.2986 C.3     1  UNL1        0.0497
     19 C          67.7819   92.0378   13.7846 C.3     1  UNL1        0.0739
     20 C          68.8134   93.4572   15.7007 C.3     1  UNL1        0.0859
     21 N          68.9297   92.3460   14.6998 N.3     1  UNL1       -0.2960
     22 H          69.1231   91.4942   15.2266 H       1  UNL1        0.1233
@<TRIPOS>BOND
     1    20    21    1
     2    21    19    1
     3    19    18    1
     4    18     1    1
     5     1     2   ar
     6     2     3   ar
     7     3     4   ar
     8     4     5   ar
     9     5     6   ar
    10     6     7   ar
    11     7     8   ar
    12     8     9   ar
    13     9    10    1
    14    10    11    1
    15    10    12    1
    16    12    13   ar
    17    13    14   ar
    18    14    15   ar
    19    15    16   ar
    20    16    17   ar
    21     9     1   ar
    22    17    12   ar
    23     8     3   ar
    24    21    22    1
@<TRIPOS>MOLECULE
*****
 22 24 0 0 0
SMALL
GASTEIGER

@<TRIPOS>ATOM
      1 C          61.8829   85.9745    9.2192 C.ar    1  UNL1        0.0050
      2 S          62.6132   84.6643    9.2266 S.2     1  UNL1       -0.0915
      3 C          63.1568   84.4443   10.6072 C.ar    1  UNL1        0.0288
      4 C          63.9599   83.3265   11.2034 C.ar    1  UNL1        0.0065
      5 C          64.3687   83.3829   12.6455 C.ar    1  UNL1        0.0005
      6 C          63.9743   84.5572   13.4914 C.ar    1  UNL1        0.0000
      7 C          63.1712   85.6750   12.8953 C.ar    1  UNL1        0.0002
      8 C          62.7625   85.6186   11.4532 C.ar    1  UNL1        0.0025
      9 C          61.9752   86.5642   10.5953 C.ar    1  UNL1       -0.0144
     10 C          61.3839   87.8704   11.0363 C.3     1  UNL1        0.0627
     11 C          59.8970   88.0115   11.1759 C.3     1  UNL1        0.0110
     12 C          62.2793   89.0354   11.3375 C.ar    1  UNL1        0.0627
     13 C          62.5734   90.0503   10.2728 C.ar    1  UNL1        0.0151
     14 C          63.4689   91.2154   10.5740 C.ar    1  UNL1        0.0028
     15 C          64.0703   91.3656   11.9400 C.ar    1  UNL1        0.0207
     16 C          63.7763   90.3507   13.0046 C.ar    1  UNL1        0.0985
     17 N          62.8808   89.1856   12.7034 N.ar    1  UNL1       -0.2478
     18 C          61.1832   86.5873    8.0424 C.3     1  UNL1        0.0497
     19 C          59.7299   86.3038    7.8029 C.3     1  UNL1        0.0739
     20 C          59.3134   88.8268    7.3434 C.3     1  UNL1        0.0859
     21 N          58.7954   87.4232    7.4513 N.3     1  UNL1       -0.2960
     22 H          58.3845   87.1907    6.5471 H       1  UNL1        0.1233
@<TRIPOS>BOND
     1    20    21    1
     2    21    19    1
     3    19    18    1
     4    18     1    1
     5     1     2   ar
     6     2     3   ar
     7     3     4   ar
     8     4     5   ar
     9     5     6   ar
    10     6     7   ar
    11     7     8   ar
    12     8     9   ar
    13     9    10    1
    14    10    11    1
    15    10    12    1
    16    12    13   ar
    17    13    14   ar
    18    14    15   ar
    19    15    16   ar
    20    16    17   ar
    21     9     1   ar
    22    17    12   ar
    23     8     3   ar
    24    21    22    1
@<TRIPOS>MOLECULE
*****
 22 24 0 0 0
SMALL
GASTEIGER

@<TRIPOS>ATOM
      1 C          63.5634   86.4107   13.2490 C.ar    1  UNL1        0.0050
      2 S          63.9672   85.4226   14.3028 S.2     1  UNL1       -0.0915
      3 C          63.5950   84.0520   13.8202 C.ar    1  UNL1        0.0288
      4 C          63.7514   82.6938   14.4373 C.ar    1  UNL1        0.0065
      5 C          63.2739   81.4766   13.7022 C.ar    1  UNL1        0.0005
      6 C          62.6400   81.6176   12.3500 C.ar    1  UNL1        0.0000
      7 C          62.4836   82.9758   11.7330 C.ar    1  UNL1        0.0002
      8 C          62.9611   84.1930   12.4681 C.ar    1  UNL1        0.0025
      9 C          62.9416   85.6508   12.1151 C.ar    1  UNL1       -0.0144
     10 C          62.3961   86.2443   10.8501 C.3     1  UNL1        0.0627
     11 C          62.5506   85.5117    9.5503 C.3     1  UNL1        0.0110
     12 C          61.6960   87.5704   10.8849 C.ar    1  UNL1        0.0627
     13 C          62.2573   88.7350   10.1241 C.ar    1  UNL1        0.0151
     14 C          61.5573   90.0612   10.1588 C.ar    1  UNL1        0.0028
     15 C          60.2959   90.2228   10.9544 C.ar    1  UNL1        0.0207
     16 C          59.7347   89.0583   11.7152 C.ar    1  UNL1        0.0985
     17 N          60.4347   87.7321   11.6805 N.ar    1  UNL1       -0.2478
     18 C          63.7489   87.8976   13.3172 C.3     1  UNL1        0.0497
     19 C          64.2779   88.5308   14.5698 C.3     1  UNL1        0.0739
     20 C          63.0899   88.5421   16.8803 C.3     1  UNL1        0.0859
     21 N          63.3335   89.1738   15.5418 N.3     1  UNL1       -0.2960
     22 H          63.6886   90.1132   15.7198 H       1  UNL1        0.1233
@<TRIPOS>BOND
     1    20    21    1
     2    21    19    1
     3    19    18    1
     4    18     1    1
     5     1     2   ar
     6     2     3   ar
     7     3     4   ar
     8     4     5   ar
     9     5     6   ar
    10     6     7   ar
    11     7     8   ar
    12     8     9   ar
    13     9    10    1
    14    10    11    1
    15    10    12    1
    16    12    13   ar
    17    13    14   ar
    18    14    15   ar
    19    15    16   ar
    20    16    17   ar
    21     9     1   ar
    22    17    12   ar
    23     8     3   ar
    24    21    22    1
@<TRIPOS>MOLECULE
*****
 22 24 0 0 0
SMALL
GASTEIGER

@<TRIPOS>ATOM
      1 C          63.8509   85.4389   14.1344 C.ar    1  UNL1        0.0050
      2 S          64.3980   86.5064   15.0351 S.2     1  UNL1       -0.0915
      3 C          64.2035   87.8300   14.3566 C.ar    1  UNL1        0.0288
      4 C          64.5478   89.2300   14.7702 C.ar    1  UNL1        0.0065
      5 C          64.2248   90.3807   13.8639 C.ar    1  UNL1        0.0005
      6 C          63.5574   90.1313   12.5439 C.ar    1  UNL1        0.0000
      7 C          63.2130   88.7312   12.1303 C.ar    1  UNL1        0.0002
      8 C          63.5361   87.5805   13.0366 C.ar    1  UNL1        0.0025
      9 C          63.3182   86.1028   12.8993 C.ar    1  UNL1       -0.0144
     10 C          62.6797   85.4105   11.7318 C.3     1  UNL1        0.0627
     11 C          62.9548   83.9577   11.4792 C.3     1  UNL1        0.0110
     12 C          61.7661   86.1709   10.8169 C.ar    1  UNL1        0.0627
     13 C          61.8722   85.9907    9.3315 C.ar    1  UNL1        0.0151
     14 C          60.9586   86.7511    8.4166 C.ar    1  UNL1        0.0028
     15 C          59.9388   87.6917    8.9870 C.ar    1  UNL1        0.0207
     16 C          59.8327   87.8719   10.4723 C.ar    1  UNL1        0.0985
     17 N          60.7463   87.1115   11.3873 N.ar    1  UNL1       -0.2478
     18 C          63.8386   83.9662   14.4189 C.3     1  UNL1        0.0497
     19 C          62.6341   83.3345   15.0515 C.3     1  UNL1        0.0739
     20 C          61.4445   81.2476   14.0618 C.3     1  UNL1        0.0859
     21 N          62.4522   81.8466   14.9977 N.3     1  UNL1       -0.2960
     22 H          63.3577   81.4480   14.7497 H       1  UNL1        0.1233
@<TRIPOS>BOND
     1    20    21    1
     2    21    19    1
     3    19    18    1
     4    18     1    1
     5     1     2   ar
     6     2     3   ar
     7     3     4   ar
     8     4     5   ar
     9     5     6   ar
    10     6     7   ar
    11     7     8   ar
    12     8     9   ar
    13     9    10    1
    14    10    11    1
    15    10    12    1
    16    12    13   ar
    17    13    14   ar
    18    14    15   ar
    19    15    16   ar
    20    16    17   ar
    21     9     1   ar
    22    17    12   ar
    23     8     3   ar
    24    21    22    1
@<TRIPOS>MOLECULE
*****
 22 24 0 0 0
SMALL
GASTEIGER

@<TRIPOS>ATOM
      1 C          62.4931   87.4924   11.4262 C.ar    1  UNL1        0.0050
      2 S          61.6653   88.6351   10.9174 S.2     1  UNL1       -0.0915
      3 C          60.8594   88.1413    9.7527 C.ar    1  UNL1        0.0288
      4 C          59.8679   88.8231    8.8571 C.ar    1  UNL1        0.0065
      5 C          59.2061   88.0569    7.7504 C.ar    1  UNL1        0.0005
      6 C          59.5358   86.6089    7.5393 C.ar    1  UNL1        0.0000
      7 C          60.5273   85.9271    8.4348 C.ar    1  UNL1        0.0002
      8 C          61.1891   86.6933    9.5416 C.ar    1  UNL1        0.0025
      9 C          62.1988   86.2923   10.5758 C.ar    1  UNL1       -0.0144
     10 C          62.8073   84.9302   10.7322 C.3     1  UNL1        0.0627
     11 C          63.6154   84.3371    9.6162 C.3     1  UNL1        0.0110
     12 C          62.6078   84.1612   12.0045 C.ar    1  UNL1        0.0627
     13 C          62.5172   82.6642   11.9697 C.ar    1  UNL1        0.0151
     14 C          62.3177   81.8951   13.2419 C.ar    1  UNL1        0.0028
     15 C          62.2087   82.6229   14.5490 C.ar    1  UNL1        0.0207
     16 C          62.2993   84.1198   14.5838 C.ar    1  UNL1        0.0985
     17 N          62.4988   84.8889   13.3116 N.ar    1  UNL1       -0.2478
     18 C          63.4477   87.5411   12.5822 C.3     1  UNL1        0.0497
     19 C          63.7126   88.8413   13.2818 C.3     1  UNL1        0.0739
     20 C          63.5723   90.1007   15.5499 C.3     1  UNL1        0.0859
     21 N          63.9118   88.8662   14.7683 N.3     1  UNL1       -0.2960
     22 H          63.3472   88.1091   15.1537 H       1  UNL1        0.1233
@<TRIPOS>BOND
     1    20    21    1
     2    21    19    1
     3    19    18    1
     4    18     1    1
     5     1     2   ar
     6     2     3   ar
     7     3     4   ar
     8     4     5   ar
     9     5     6   ar
    10     6     7   ar
    11     7     8   ar
    12     8     9   ar
    13     9    10    1
    14    10    11    1
    15    10    12    1
    16    12    13   ar
    17    13    14   ar
    18    14    15   ar
    19    15    16   ar
    20    16    17   ar
    21     9     1   ar
    22    17    12   ar
    23     8     3   ar
    24    21    22    1
@<TRIPOS>MOLECULE
*****
 22 24 0 0 0
SMALL
GASTEIGER

@<TRIPOS>ATOM
      1 C          62.8038   83.1679   12.8964 C.ar    1  UNL1        0.0050
      2 S          63.0698   83.3278   14.3639 S.2     1  UNL1       -0.0915
      3 C          63.4579   84.7554   14.6118 C.ar    1  UNL1        0.0288
      4 C          63.8317   85.4908   15.8646 C.ar    1  UNL1        0.0065
      5 C          64.1794   86.9486   15.8030 C.ar    1  UNL1        0.0005
      6 C          64.1533   87.6710   14.4886 C.ar    1  UNL1        0.0000
      7 C          63.7795   86.9356   13.2359 C.ar    1  UNL1        0.0002
      8 C          63.4318   85.4778   13.2975 C.ar    1  UNL1        0.0025
      9 C          63.0275   84.4967   12.2373 C.ar    1  UNL1       -0.0144
     10 C          62.8740   84.7925   10.7748 C.3     1  UNL1        0.0627
     11 C          63.6943   84.0421    9.7677 C.3     1  UNL1        0.0110
     12 C          61.9002   85.8384   10.3193 C.ar    1  UNL1        0.0627
     13 C          61.6793   86.0701    8.8538 C.ar    1  UNL1        0.0151
     14 C          60.7055   87.1161    8.3982 C.ar    1  UNL1        0.0028
     15 C          59.9526   87.9305    9.4082 C.ar    1  UNL1        0.0207
     16 C          60.1735   87.6988   10.8736 C.ar    1  UNL1        0.0985
     17 N          61.1473   86.6528   11.3292 N.ar    1  UNL1       -0.2478
     18 C          62.3872   81.9017   12.2086 C.3     1  UNL1        0.0497
     19 C          62.7004   80.5728   12.8299 C.3     1  UNL1        0.0739
     20 C          60.4731   80.6066   14.1672 C.3     1  UNL1        0.0859
     21 N          61.6554   79.8547   13.6315 N.3     1  UNL1       -0.2960
     22 H          61.2874   79.1119   13.0372 H       1  UNL1        0.1233
@<TRIPOS>BOND
     1    20    21    1
     2    21    19    1
     3    19    18    1
     4    18     1    1
     5     1     2   ar
     6     2     3   ar
     7     3     4   ar
     8     4     5   ar
     9     5     6   ar
    10     6     7   ar
    11     7     8   ar
    12     8     9   ar
    13     9    10    1
    14    10    11    1
    15    10    12    1
    16    12    13   ar
    17    13    14   ar
    18    14    15   ar
    19    15    16   ar
    20    16    17   ar
    21     9     1   ar
    22    17    12   ar
    23     8     3   ar
    24    21    22    1
@<TRIPOS>MOLECULE
*****
 22 24 0 0 0
SMALL
GASTEIGER

@<TRIPOS>ATOM
      1 C          61.2266   87.3125    9.8041 C.ar    1  UNL1        0.0050
      2 S          61.0723   88.7512   10.1994 S.2     1  UNL1       -0.0915
      3 C          61.9713   89.0087   11.3722 C.ar    1  UNL1        0.0288
      4 C          62.2352   90.2431   12.1825 C.ar    1  UNL1        0.0065
      5 C          63.2090   90.1978   13.3225 C.ar    1  UNL1        0.0005
      6 C          63.9189   88.9182   13.6521 C.ar    1  UNL1        0.0000
      7 C          63.6550   87.6839   12.8417 C.ar    1  UNL1        0.0002
      8 C          62.6812   87.7291   11.7018 C.ar    1  UNL1        0.0025
      9 C          62.2209   86.6808   10.7326 C.ar    1  UNL1       -0.0144
     10 C          62.6753   85.2517   10.6982 C.3     1  UNL1        0.0627
     11 C          63.2378   84.6738    9.4333 C.3     1  UNL1        0.0110
     12 C          62.5672   84.4004   11.9284 C.ar    1  UNL1        0.0627
     13 C          62.6273   82.9059   11.8140 C.ar    1  UNL1        0.0151
     14 C          62.5192   82.0545   13.0442 C.ar    1  UNL1        0.0028
     15 C          62.3510   82.6976   14.3889 C.ar    1  UNL1        0.0207
     16 C          62.2908   84.1920   14.5033 C.ar    1  UNL1        0.0985
     17 N          62.3990   85.0434   13.2731 N.ar    1  UNL1       -0.2478
     18 C          60.5119   86.6260    8.6780 C.3     1  UNL1        0.0497
     19 C          59.0505   86.8776    8.4531 C.3     1  UNL1        0.0739
     20 C          59.3818   88.9680    6.9462 C.3     1  UNL1        0.0859
     21 N          58.6050   87.7364    7.3068 N.3     1  UNL1       -0.2960
     22 H          58.5962   87.1409    6.4787 H       1  UNL1        0.1233
@<TRIPOS>BOND
     1    20    21    1
     2    21    19    1
     3    19    18    1
     4    18     1    1
     5     1     2   ar
     6     2     3   ar
     7     3     4   ar
     8     4     5   ar
     9     5     6   ar
    10     6     7   ar
    11     7     8   ar
    12     8     9   ar
    13     9    10    1
    14    10    11    1
    15    10    12    1
    16    12    13   ar
    17    13    14   ar
    18    14    15   ar
    19    15    16   ar
    20    16    17   ar
    21     9     1   ar
    22    17    12   ar
    23     8     3   ar
    24    21    22    1
@<TRIPOS>MOLECULE
*****
 22 24 0 0 0
SMALL
GASTEIGER

@<TRIPOS>ATOM
      1 C          63.6026   88.5215   13.0849 C.ar    1  UNL1        0.0050
      2 S          62.9150   89.2676   11.9801 S.2     1  UNL1       -0.0915
      3 C          62.2736   88.2619   11.0706 C.ar    1  UNL1        0.0288
      4 C          61.4621   88.4148    9.8185 C.ar    1  UNL1        0.0065
      5 C          60.9417   87.2000    9.1090 C.ar    1  UNL1        0.0005
      6 C          61.2330   85.8323    9.6516 C.ar    1  UNL1        0.0000
      7 C          62.0446   85.6793   10.9038 C.ar    1  UNL1        0.0002
      8 C          62.5649   86.8942   11.6133 C.ar    1  UNL1        0.0025
      9 C          63.3862   87.0546   12.8581 C.ar    1  UNL1       -0.0144
     10 C          63.9008   85.9433   13.7242 C.3     1  UNL1        0.0627
     11 C          64.7112   86.2588   14.9465 C.3     1  UNL1        0.0110
     12 C          63.6052   84.5166   13.3681 C.ar    1  UNL1        0.0627
     13 C          62.4812   83.7915   14.0472 C.ar    1  UNL1        0.0151
     14 C          62.1855   82.3647   13.6911 C.ar    1  UNL1        0.0028
     15 C          63.0138   81.6629   12.6560 C.ar    1  UNL1        0.0207
     16 C          64.1377   82.3879   11.9769 C.ar    1  UNL1        0.0985
     17 N          64.4334   83.8147   12.3330 N.ar    1  UNL1       -0.2478
     18 C          64.3716   89.1346   14.2175 C.3     1  UNL1        0.0497
     19 C          63.6708   90.0130   15.2111 C.3     1  UNL1        0.0739
     20 C          62.9961   88.4032   17.1356 C.3     1  UNL1        0.0859
     21 N          62.6212   89.4353   16.1136 N.3     1  UNL1       -0.2960
     22 H          62.2077   90.2168   16.6223 H       1  UNL1        0.1233
@<TRIPOS>BOND
     1    20    21    1
     2    21    19    1
     3    19    18    1
     4    18     1    1
     5     1     2   ar
     6     2     3   ar
     7     3     4   ar
     8     4     5   ar
     9     5     6   ar
    10     6     7   ar
    11     7     8   ar
    12     8     9   ar
    13     9    10    1
    14    10    11    1
    15    10    12    1
    16    12    13   ar
    17    13    14   ar
    18    14    15   ar
    19    15    16   ar
    20    16    17   ar
    21     9     1   ar
    22    17    12   ar
    23     8     3   ar
    24    21    22    1
@<TRIPOS>MOLECULE
*****
 22 24 0 0 0
SMALL
GASTEIGER

@<TRIPOS>ATOM
      1 C          62.2213   86.9245   11.2379 C.ar    1  UNL1        0.0050
      2 S          61.9860   85.8901   10.1774 S.2     1  UNL1       -0.0915
      3 C          61.0644   86.4797    9.1511 C.ar    1  UNL1        0.0288
      4 C          60.4865   85.9236    7.8836 C.ar    1  UNL1        0.0065
      5 C          59.5743   86.7663    7.0424 C.ar    1  UNL1        0.0005
      6 C          59.2401   88.1651    7.4686 C.ar    1  UNL1        0.0000
      7 C          59.8181   88.7212    8.7361 C.ar    1  UNL1        0.0002
      8 C          60.7302   87.8785    9.5774 C.ar    1  UNL1        0.0025
      9 C          61.4452   88.1534   10.8671 C.ar    1  UNL1       -0.0144
     10 C          61.3932   89.4326   11.6487 C.3     1  UNL1        0.0627
     11 C          60.1255   89.8376   12.3409 C.3     1  UNL1        0.0110
     12 C          62.6088   90.3068   11.7382 C.ar    1  UNL1        0.0627
     13 C          63.1064   91.0265   10.5198 C.ar    1  UNL1        0.0151
     14 C          64.3220   91.9008   10.6093 C.ar    1  UNL1        0.0028
     15 C          65.0400   92.0553   11.9172 C.ar    1  UNL1        0.0207
     16 C          64.5424   91.3357   13.1356 C.ar    1  UNL1        0.0985
     17 N          63.3268   90.4614   13.0461 N.ar    1  UNL1       -0.2478
     18 C          63.0817   86.7590   12.4554 C.3     1  UNL1        0.0497
     19 C          63.3376   85.3901   13.0126 C.3     1  UNL1        0.0739
     20 C          62.8609   83.6371   14.8700 C.3     1  UNL1        0.0859
     21 N          62.4289   84.8266   14.0646 N.3     1  UNL1       -0.2960
     22 H          62.2433   85.5793   14.7274 H       1  UNL1        0.1233
@<TRIPOS>BOND
     1    20    21    1
     2    21    19    1
     3    19    18    1
     4    18     1    1
     5     1     2   ar
     6     2     3   ar
     7     3     4   ar
     8     4     5   ar
     9     5     6   ar
    10     6     7   ar
    11     7     8   ar
    12     8     9   ar
    13     9    10    1
    14    10    11    1
    15    10    12    1
    16    12    13   ar
    17    13    14   ar
    18    14    15   ar
    19    15    16   ar
    20    16    17   ar
    21     9     1   ar
    22    17    12   ar
    23     8     3   ar
    24    21    22    1
