@<TRIPOS>MOLECULE
*****
 19 20 0 0 0
SMALL
GASTEIGER

@<TRIPOS>ATOM
      1 C          63.0498   90.0953   12.2683 C.2     1  UNL1        0.0873
      2 C          63.5787   90.9463   11.1520 C.2     1  UNL1        0.0596
      3 C          64.6427   91.9673   11.4266 C.2     1  UNL1        0.1971
      4 O          65.1716   92.8183   10.3103 O.2     1  UNL1       -0.2865
      5 C          65.1779   92.1373   12.8176 C.ar    1  UNL1        0.0421
      6 C          66.2418   93.1583   13.0922 C.ar    1  UNL1        0.0033
      7 C          66.7770   93.3283   14.4832 C.ar    1  UNL1        0.0001
      8 C          66.2481   92.4773   15.5994 C.ar    1  UNL1        0.0001
      9 C          65.1841   91.4564   15.3248 C.ar    1  UNL1        0.0033
     10 C          64.6490   91.2864   13.9339 C.ar    1  UNL1        0.0433
     11 C          63.5849   90.2653   13.6592 C.2     1  UNL1        0.2087
     12 O          63.0560   89.4143   14.7755 O.2     1  UNL1       -0.2853
     13 N          61.9858   89.0743   11.9936 N.pl3   1  UNL1       -0.3301
     14 H          61.0762   89.2039   12.3472 H       1  UNL1        0.1469
     15 C          62.3077   87.8559   11.1800 C.3     1  UNL1        0.0871
     16 C          62.0642   87.8565    9.6999 C.3     1  UNL1        0.0212
     17 C          60.3430   86.2972    8.5355 C.3     1  UNL1        0.0001
     18 C          61.7450   86.5733    8.9918 C.3     1  UNL1        0.0017
     19 C          62.8277   85.5663    8.7399 C.3     1  UNL1        0.0001
@<TRIPOS>BOND
     1    17    18    1
     2    18    19    1
     3    18    16    1
     4    16    15    1
     5    15    13    1
     6    13     1    1
     7     1     2    2
     8     2     3    1
     9     3     4    2
    10     3     5    1
    11     5     6   ar
    12     6     7   ar
    13     7     8   ar
    14     8     9   ar
    15     9    10   ar
    16    10    11    1
    17    11    12    2
    18    11     1    1
    19    10     5   ar
    20    13    14    1
@<TRIPOS>MOLECULE
*****
 19 20 0 0 0
SMALL
GASTEIGER

@<TRIPOS>ATOM
      1 C          62.4905   85.4479    9.8344 C.2     1  UNL1        0.0873
      2 C          63.3789   84.3317    9.3707 C.2     1  UNL1        0.0596
      3 C          63.9246   83.3465   10.3614 C.2     1  UNL1        0.1971
      4 O          64.8129   82.2303    9.8977 O.2     1  UNL1       -0.2865
      5 C          63.5819   83.4774   11.8159 C.ar    1  UNL1        0.0421
      6 C          64.1276   82.4922   12.8066 C.ar    1  UNL1        0.0033
      7 C          63.7849   82.6231   14.2610 C.ar    1  UNL1        0.0001
      8 C          62.8966   83.7392   14.7248 C.ar    1  UNL1        0.0001
      9 C          62.3509   84.7245   13.7341 C.ar    1  UNL1        0.0033
     10 C          62.6936   84.5935   12.2797 C.ar    1  UNL1        0.0433
     11 C          62.1479   85.5788   11.2889 C.2     1  UNL1        0.2087
     12 O          61.2595   86.6949   11.7526 O.2     1  UNL1       -0.2853
     13 N          61.9448   86.4331    8.8437 N.pl3   1  UNL1       -0.3301
     14 H          62.4587   87.2426    8.6203 H       1  UNL1        0.1469
     15 C          60.6161   86.1850    8.1933 C.3     1  UNL1        0.0871
     16 C          59.4820   87.1411    8.4158 C.3     1  UNL1        0.0212
     17 C          60.1839   89.4574    9.3602 C.3     1  UNL1        0.0001
     18 C          59.6931   88.6134    8.2215 C.3     1  UNL1        0.0017
     19 C          59.4134   89.2417    6.8885 C.3     1  UNL1        0.0001
@<TRIPOS>BOND
     1    17    18    1
     2    18    19    1
     3    18    16    1
     4    16    15    1
     5    15    13    1
     6    13     1    1
     7     1     2    2
     8     2     3    1
     9     3     4    2
    10     3     5    1
    11     5     6   ar
    12     6     7   ar
    13     7     8   ar
    14     8     9   ar
    15     9    10   ar
    16    10    11    1
    17    11    12    2
    18    11     1    1
    19    10     5   ar
    20    13    14    1
@<TRIPOS>MOLECULE
*****
 19 20 0 0 0
SMALL
GASTEIGER

@<TRIPOS>ATOM
      1 C          62.8377   89.7863   11.2173 C.2     1  UNL1        0.0873
      2 C          62.9587   88.8796   12.4061 C.2     1  UNL1        0.0596
      3 C          63.8613   89.2521   13.5447 C.2     1  UNL1        0.1971
      4 O          63.9823   88.3454   14.7335 O.2     1  UNL1       -0.2865
      5 C          64.6430   90.5314   13.4946 C.ar    1  UNL1        0.0421
      6 C          65.5455   90.9039   14.6333 C.ar    1  UNL1        0.0033
      7 C          66.3271   92.1832   14.5831 C.ar    1  UNL1        0.0001
      8 C          66.2061   93.0899   13.3943 C.ar    1  UNL1        0.0001
      9 C          65.3036   92.7174   12.2557 C.ar    1  UNL1        0.0033
     10 C          64.5220   91.4382   12.3059 C.ar    1  UNL1        0.0433
     11 C          63.6193   91.0656   11.1672 C.2     1  UNL1        0.2087
     12 O          63.4984   91.9723    9.9784 O.2     1  UNL1       -0.2853
     13 N          61.9351   89.4137   10.0786 N.pl3   1  UNL1       -0.3301
     14 H          61.8666   90.0018    9.2920 H       1  UNL1        0.1469
     15 C          61.1369   88.1451   10.1385 C.3     1  UNL1        0.0871
     16 C          61.3677   87.0652    9.1234 C.3     1  UNL1        0.0212
     17 C          62.3441   85.4102   10.8721 C.3     1  UNL1        0.0001
     18 C          62.2495   85.8985    9.4569 C.3     1  UNL1        0.0017
     19 C          63.0368   85.2201    8.3753 C.3     1  UNL1        0.0001
@<TRIPOS>BOND
     1    17    18    1
     2    18    19    1
     3    18    16    1
     4    16    15    1
     5    15    13    1
     6    13     1    1
     7     1     2    2
     8     2     3    1
     9     3     4    2
    10     3     5    1
    11     5     6   ar
    12     6     7   ar
    13     7     8   ar
    14     8     9   ar
    15     9    10   ar
    16    10    11    1
    17    11    12    2
    18    11     1    1
    19    10     5   ar
    20    13    14    1
@<TRIPOS>MOLECULE
*****
 19 20 0 0 0
SMALL
GASTEIGER

@<TRIPOS>ATOM
      1 C          60.9233   86.9059    9.4116 C.2     1  UNL1        0.0873
      2 C          61.4763   86.3129    8.1496 C.2     1  UNL1        0.0596
      3 C          62.4823   85.2025    8.2207 C.2     1  UNL1        0.1971
      4 O          63.0353   84.6095    6.9588 O.2     1  UNL1       -0.2865
      5 C          62.9354   84.6852    9.5539 C.ar    1  UNL1        0.0421
      6 C          63.9414   83.5749    9.6249 C.ar    1  UNL1        0.0033
      7 C          64.3945   83.0576   10.9580 C.ar    1  UNL1        0.0001
      8 C          63.8415   83.6506   12.2200 C.ar    1  UNL1        0.0001
      9 C          62.8355   84.7609   12.1489 C.ar    1  UNL1        0.0033
     10 C          62.3824   85.2782   10.8158 C.ar    1  UNL1        0.0433
     11 C          61.3764   86.3886   10.7447 C.2     1  UNL1        0.2087
     12 O          60.8234   86.9816   12.0066 O.2     1  UNL1       -0.2853
     13 N          59.9172   88.0162    9.3405 N.pl3   1  UNL1       -0.3301
     14 H          58.9550   87.8085    9.3274 H       1  UNL1        0.1469
     15 C          60.3773   89.4430    9.2893 C.3     1  UNL1        0.0871
     16 C          60.8188   90.1342   10.5451 C.3     1  UNL1        0.0212
     17 C          63.0830   91.2945   10.0189 C.3     1  UNL1        0.0001
     18 C          62.2808   90.3174   10.8261 C.3     1  UNL1        0.0017
     19 C          62.9407   89.5235   11.9144 C.3     1  UNL1        0.0001
@<TRIPOS>BOND
     1    17    18    1
     2    18    19    1
     3    18    16    1
     4    16    15    1
     5    15    13    1
     6    13     1    1
     7     1     2    2
     8     2     3    1
     9     3     4    2
    10     3     5    1
    11     5     6   ar
    12     6     7   ar
    13     7     8   ar
    14     8     9   ar
    15     9    10   ar
    16    10    11    1
    17    11    12    2
    18    11     1    1
    19    10     5   ar
    20    13    14    1
@<TRIPOS>MOLECULE
*****
 19 20 0 0 0
SMALL
GASTEIGER

@<TRIPOS>ATOM
      1 C          61.8403   89.0734   11.5714 C.2     1  UNL1        0.0873
      2 C          62.5269   87.7413   11.6347 C.2     1  UNL1        0.0596
      3 C          62.1938   86.6774   10.6312 C.2     1  UNL1        0.1971
      4 O          62.8803   85.3452   10.6945 O.2     1  UNL1       -0.2865
      5 C          61.1740   86.9456    9.5643 C.ar    1  UNL1        0.0421
      6 C          60.8408   85.8816    8.5608 C.ar    1  UNL1        0.0033
      7 C          59.8211   86.1499    7.4940 C.ar    1  UNL1        0.0001
      8 C          59.1345   87.4820    7.4306 C.ar    1  UNL1        0.0001
      9 C          59.4676   88.5459    8.4341 C.ar    1  UNL1        0.0033
     10 C          60.4874   88.2777    9.5010 C.ar    1  UNL1        0.0433
     11 C          60.8206   89.3416   10.5045 C.2     1  UNL1        0.2087
     12 O          60.1340   90.6738   10.4412 O.2     1  UNL1       -0.2853
     13 N          62.1735   90.1373   12.5749 N.pl3   1  UNL1       -0.3301
     14 H          61.4530   90.6589   12.9970 H       1  UNL1        0.1469
     15 C          63.6044   90.4065   12.9354 C.3     1  UNL1        0.0871
     16 C          64.0275   90.4097   14.3745 C.3     1  UNL1        0.0212
     17 C          63.1606   89.2499   16.5317 C.3     1  UNL1        0.0001
     18 C          63.8615   89.1735   15.2078 C.3     1  UNL1        0.0017
     19 C          64.3965   87.8609   14.7171 C.3     1  UNL1        0.0001
@<TRIPOS>BOND
     1    17    18    1
     2    18    19    1
     3    18    16    1
     4    16    15    1
     5    15    13    1
     6    13     1    1
     7     1     2    2
     8     2     3    1
     9     3     4    2
    10     3     5    1
    11     5     6   ar
    12     6     7   ar
    13     7     8   ar
    14     8     9   ar
    15     9    10   ar
    16    10    11    1
    17    11    12    2
    18    11     1    1
    19    10     5   ar
    20    13    14    1
@<TRIPOS>MOLECULE
*****
 19 20 0 0 0
SMALL
GASTEIGER

@<TRIPOS>ATOM
      1 C          62.6599   85.4452   11.9303 C.2     1  UNL1        0.0873
      2 C          61.9199   85.5095   10.6271 C.2     1  UNL1        0.0596
      3 C          61.6655   86.8355    9.9736 C.2     1  UNL1        0.1971
      4 O          60.9255   86.8998    8.6705 O.2     1  UNL1       -0.2865
      5 C          62.1510   88.0973   10.6234 C.ar    1  UNL1        0.0421
      6 C          61.8966   89.4233    9.9700 C.ar    1  UNL1        0.0033
      7 C          62.3822   90.6850   10.6198 C.ar    1  UNL1        0.0001
      8 C          63.1221   90.6207   11.9230 C.ar    1  UNL1        0.0001
      9 C          63.3766   89.2948   12.5764 C.ar    1  UNL1        0.0033
     10 C          62.8910   88.0330   11.9266 C.ar    1  UNL1        0.0433
     11 C          63.1454   86.7070   12.5800 C.2     1  UNL1        0.2087
     12 O          63.8854   86.6427   13.8832 O.2     1  UNL1       -0.2853
     13 N          62.9143   84.1192   12.5837 N.pl3   1  UNL1       -0.3301
     14 H          63.5106   83.4647   12.1533 H       1  UNL1        0.1469
     15 C          62.2601   83.7904   13.8928 C.3     1  UNL1        0.0871
     16 C          62.4351   82.4290   14.4977 C.3     1  UNL1        0.0212
     17 C          62.7084   80.5171   12.7599 C.3     1  UNL1        0.0001
     18 C          61.8859   81.2212   13.7981 C.3     1  UNL1        0.0017
     19 C          60.5143   80.7173   14.1366 C.3     1  UNL1        0.0001
@<TRIPOS>BOND
     1    17    18    1
     2    18    19    1
     3    18    16    1
     4    16    15    1
     5    15    13    1
     6    13     1    1
     7     1     2    2
     8     2     3    1
     9     3     4    2
    10     3     5    1
    11     5     6   ar
    12     6     7   ar
    13     7     8   ar
    14     8     9   ar
    15     9    10   ar
    16    10    11    1
    17    11    12    2
    18    11     1    1
    19    10     5   ar
    20    13    14    1
@<TRIPOS>MOLECULE
*****
 19 20 0 0 0
SMALL
GASTEIGER

@<TRIPOS>ATOM
      1 C          62.1238   85.6156   11.2553 C.2     1  UNL1        0.0873
      2 C          61.3434   86.0139   10.0378 C.2     1  UNL1        0.0596
      3 C          61.2540   87.4584    9.6436 C.2     1  UNL1        0.1971
      4 O          60.4736   87.8567    8.4261 O.2     1  UNL1       -0.2865
      5 C          61.9450   88.5047   10.4670 C.ar    1  UNL1        0.0421
      6 C          61.8556   89.9492   10.0729 C.ar    1  UNL1        0.0033
      7 C          62.5466   90.9953   10.8963 C.ar    1  UNL1        0.0001
      8 C          63.3270   90.5970   12.1138 C.ar    1  UNL1        0.0001
      9 C          63.4164   89.1525   12.5079 C.ar    1  UNL1        0.0033
     10 C          62.7254   88.1064   11.6845 C.ar    1  UNL1        0.0433
     11 C          62.8148   86.6618   12.0787 C.2     1  UNL1        0.2087
     12 O          63.5952   86.2635   13.2962 O.2     1  UNL1       -0.2853
     13 N          62.2132   84.1710   11.6494 N.pl3   1  UNL1       -0.3301
     14 H          61.4380   83.7238   12.0596 H       1  UNL1        0.1469
     15 C          63.4838   83.4079   11.4185 C.3     1  UNL1        0.0871
     16 C          63.9439   82.3953   12.4250 C.3     1  UNL1        0.0212
     17 C          62.1006   81.4922   14.0176 C.3     1  UNL1        0.0001
     18 C          63.3107   82.3472   13.7839 C.3     1  UNL1        0.0017
     19 C          63.8875   83.1541   14.9091 C.3     1  UNL1        0.0001
@<TRIPOS>BOND
     1    17    18    1
     2    18    19    1
     3    18    16    1
     4    16    15    1
     5    15    13    1
     6    13     1    1
     7     1     2    2
     8     2     3    1
     9     3     4    2
    10     3     5    1
    11     5     6   ar
    12     6     7   ar
    13     7     8   ar
    14     8     9   ar
    15     9    10   ar
    16    10    11    1
    17    11    12    2
    18    11     1    1
    19    10     5   ar
    20    13    14    1
@<TRIPOS>MOLECULE
*****
 19 20 0 0 0
SMALL
GASTEIGER

@<TRIPOS>ATOM
      1 C          62.2962   89.2905   11.8250 C.2     1  UNL1        0.0873
      2 C          62.7901   87.8865   12.0116 C.2     1  UNL1        0.0596
      3 C          62.3314   86.8006   11.0840 C.2     1  UNL1        0.1971
      4 O          62.8252   85.3966   11.2706 O.2     1  UNL1       -0.2865
      5 C          61.3787   87.1187    9.9699 C.ar    1  UNL1        0.0421
      6 C          60.9199   86.0328    9.0424 C.ar    1  UNL1        0.0033
      7 C          59.9673   86.3510    7.9283 C.ar    1  UNL1        0.0001
      8 C          59.4734   87.7550    7.7417 C.ar    1  UNL1        0.0001
      9 C          59.9322   88.8409    8.6692 C.ar    1  UNL1        0.0033
     10 C          60.8848   88.5227    9.7833 C.ar    1  UNL1        0.0433
     11 C          61.3436   89.6087   10.7109 C.2     1  UNL1        0.2087
     12 O          60.8497   91.0127   10.5243 O.2     1  UNL1       -0.2853
     13 N          62.7550   90.3765   12.7526 N.pl3   1  UNL1       -0.3301
     14 H          62.6674   91.3204   12.4869 H       1  UNL1        0.1469
     15 C          63.3473   90.0241   14.0849 C.3     1  UNL1        0.0871
     16 C          64.8252   90.1530   14.3063 C.3     1  UNL1        0.0212
     17 C          65.7164   92.1528   12.9076 C.3     1  UNL1        0.0001
     18 C          65.4792   91.5012   14.2376 C.3     1  UNL1        0.0017
     19 C          65.8960   92.1978   15.4990 C.3     1  UNL1        0.0001
@<TRIPOS>BOND
     1    17    18    1
     2    18    19    1
     3    18    16    1
     4    16    15    1
     5    15    13    1
     6    13     1    1
     7     1     2    2
     8     2     3    1
     9     3     4    2
    10     3     5    1
    11     5     6   ar
    12     6     7   ar
    13     7     8   ar
    14     8     9   ar
    15     9    10   ar
    16    10    11    1
    17    11    12    2
    18    11     1    1
    19    10     5   ar
    20    13    14    1
@<TRIPOS>MOLECULE
*****
 19 20 0 0 0
SMALL
GASTEIGER

@<TRIPOS>ATOM
      1 C          63.8995   89.7440   13.4719 C.2     1  UNL1        0.0873
      2 C          64.3051   88.5557   14.2925 C.2     1  UNL1        0.0596
      3 C          63.9370   87.1728   13.8428 C.2     1  UNL1        0.1971
      4 O          64.3427   85.9845   14.6634 O.2     1  UNL1       -0.2865
      5 C          63.1633   86.9782   12.5725 C.ar    1  UNL1        0.0421
      6 C          62.7953   85.5954   12.1229 C.ar    1  UNL1        0.0033
      7 C          62.0216   85.4008   10.8527 C.ar    1  UNL1        0.0001
      8 C          61.6160   86.5892   10.0321 C.ar    1  UNL1        0.0001
      9 C          61.9841   87.9720   10.4817 C.ar    1  UNL1        0.0033
     10 C          62.7577   88.1665   11.7519 C.ar    1  UNL1        0.0433
     11 C          63.1258   89.5495   12.2016 C.2     1  UNL1        0.2087
     12 O          62.7202   90.7378   11.3810 O.2     1  UNL1       -0.2853
     13 N          64.2675   91.1269   13.9216 N.pl3   1  UNL1       -0.3301
     14 H          64.0757   91.9000   13.3431 H       1  UNL1        0.1469
     15 C          64.9279   91.3318   15.2527 C.3     1  UNL1        0.0871
     16 C          65.9320   92.4318   15.4305 C.3     1  UNL1        0.0212
     17 C          67.7419   91.8471   13.6606 C.3     1  UNL1        0.0001
     18 C          67.3695   92.2006   15.0700 C.3     1  UNL1        0.0017
     19 C          68.4348   92.3228   16.1189 C.3     1  UNL1        0.0001
@<TRIPOS>BOND
     1    17    18    1
     2    18    19    1
     3    18    16    1
     4    16    15    1
     5    15    13    1
     6    13     1    1
     7     1     2    2
     8     2     3    1
     9     3     4    2
    10     3     5    1
    11     5     6   ar
    12     6     7   ar
    13     7     8   ar
    14     8     9   ar
    15     9    10   ar
    16    10    11    1
    17    11    12    2
    18    11     1    1
    19    10     5   ar
    20    13    14    1
