@<TRIPOS>MOLECULE
*****
 33 37 0 0 0
SMALL
GASTEIGER

@<TRIPOS>ATOM
      1 C          62.9117   81.8221   12.7582 C.2     1  UNL1        0.0579
      2 C          63.8764   82.1520   13.8584 C.2     1  UNL1        0.0040
      3 C          64.2412   83.5809   14.1326 C.2     1  UNL1        0.0187
      4 C          63.6412   84.6799   13.3066 C.2     1  UNL1        0.0793
      5 N          63.8102   86.1698   13.3435 N.2     1  UNL1       -0.2413
      6 C          62.9499   86.7608   12.2662 C.ar    1  UNL1        0.1301
      7 C          62.7141   88.1777   11.8344 C.ar    1  UNL1        0.1528
      8 N          61.7775   88.4700   10.6998 N.ar    1  UNL1       -0.2074
      9 C          61.0768   87.3452    9.9970 C.ar    1  UNL1        0.2001
     10 N          61.3127   85.9282   10.4288 N.ar    1  UNL1       -0.2226
     11 C          62.2492   85.6361   11.5634 C.ar    1  UNL1        0.1011
     12 C          62.6765   84.3499   12.2065 C.2     1  UNL1        0.0193
     13 C          62.3117   82.9210   11.9323 C.3     1  UNL1        0.0623
     14 N          63.4148   89.3026   12.5372 N.pl3   1  UNL1       -0.2891
     15 C          63.4226   90.6754   11.9329 C.3     1  UNL1        0.1095
     16 C          64.1233   91.8002   12.6357 C.3     1  UNL1        0.0939
     17 N          64.8161   91.5521   13.9428 N.3     1  UNL1       -0.2695
     18 C          64.8083   90.1792   14.5471 C.3     1  UNL1        0.0939
     19 C          64.1076   89.0545   13.8443 C.3     1  UNL1        0.1095
     20 C          65.5168   92.6768   14.6456 C.3     1  UNL1        0.0769
     21 C          66.7471   93.2874   14.0426 C.3     1  UNL1        0.0437
     22 C          66.8257   93.5083   12.5609 C.ar    1  UNL1       -0.0184
     23 C          66.3036   94.7814   11.9637 C.ar    1  UNL1       -0.0018
     24 C          66.3822   95.0022   10.4821 C.ar    1  UNL1        0.0316
     25 C          66.9829   93.9500    9.5978 C.ar    1  UNL1        0.1674
     26 F          67.0615   94.1708    8.1163 F       1  UNL1       -0.2018
     27 C          67.5049   92.6769   10.1950 C.ar    1  UNL1        0.1671
     28 F          68.1056   91.6247    9.3107 F       1  UNL1       -0.2018
     29 C          67.4263   92.4560   11.6767 C.ar    1  UNL1        0.0277
     30 C          62.5469   80.3932   12.4841 C.2     1  UNL1        0.3376
     31 O          63.0284   79.7233   11.2314 O.2     1  UNL1       -0.2452
     32 C          60.5935   80.3318   14.1959 C.3     1  UNL1        0.2559
     33 O          61.7005   79.6341   13.4626 O.3     1  UNL1       -0.4415
@<TRIPOS>BOND
     1    32    33    1
     2    33    30    1
     3    30    31    2
     4    30     1    1
     5     1     2    2
     6     2     3    1
     7     3     4    2
     8     4     5    1
     9     5     6    2
    10     6     7   ar
    11     7    14    1
    12    14    15    1
    13    15    16    1
    14    16    17    1
    15    17    20    1
    16    20    21    1
    17    21    22    1
    18    22    23   ar
    19    23    24   ar
    20    24    25   ar
    21    25    26    1
    22    25    27   ar
    23    27    28    1
    24    27    29   ar
    25    17    18    1
    26    18    19    1
    27     7     8   ar
    28     8     9   ar
    29     9    10   ar
    30    10    11   ar
    31    11    12    2
    32    12    13    1
    33    13     1    1
    34    12     4    1
    35    11     6   ar
    36    19    14    1
    37    29    22   ar
@<TRIPOS>MOLECULE
*****
 33 37 0 0 0
SMALL
GASTEIGER

@<TRIPOS>ATOM
      1 C          62.9960   81.7213   12.5206 C.2     1  UNL1        0.0579
      2 C          63.9738   82.0473   13.6104 C.2     1  UNL1        0.0040
      3 C          64.3138   83.4773   13.9099 C.2     1  UNL1        0.0187
      4 C          63.6760   84.5812   13.1196 C.2     1  UNL1        0.0793
      5 N          63.8146   86.0732   13.1869 N.2     1  UNL1       -0.2413
      6 C          62.9224   86.6694   12.1387 C.ar    1  UNL1        0.1301
      7 C          62.6493   88.0902   11.7430 C.ar    1  UNL1        0.1528
      8 N          61.6860   88.3874   10.6322 N.ar    1  UNL1       -0.2074
      9 C          60.9961   87.2638    9.9171 C.ar    1  UNL1        0.2001
     10 N          61.2693   85.8429   10.3128 N.ar    1  UNL1       -0.2226
     11 C          62.2325   85.5458   11.4236 C.ar    1  UNL1        0.1011
     12 C          62.6982   84.2552   12.0299 C.2     1  UNL1        0.0193
     13 C          62.3582   82.8252   11.7304 C.3     1  UNL1        0.0623
     14 N          63.3393   89.2139   12.4581 N.pl3   1  UNL1       -0.2891
     15 C          63.3759   90.5825   11.8453 C.3     1  UNL1        0.1095
     16 C          64.0659   91.7061   12.5604 C.3     1  UNL1        0.0939
     17 N          64.7192   91.4611   13.8883 N.3     1  UNL1       -0.2695
     18 C          64.6826   90.0925   14.5011 C.3     1  UNL1        0.0939
     19 C          63.9926   88.9689   13.7860 C.3     1  UNL1        0.1095
     20 C          65.4092   92.5847   14.6034 C.3     1  UNL1        0.0769
     21 C          66.6662   93.1749   14.0363 C.3     1  UNL1        0.0437
     22 C          66.7668   93.4542   12.5659 C.ar    1  UNL1       -0.0184
     23 C          67.3959   92.4447   11.6521 C.ar    1  UNL1       -0.0018
     24 C          67.4965   92.7240   10.1818 C.ar    1  UNL1        0.0316
     25 C          66.9679   94.0127    9.6253 C.ar    1  UNL1        0.1674
     26 F          67.0684   94.2920    8.1549 F       1  UNL1       -0.2018
     27 C          66.3387   95.0222   10.5391 C.ar    1  UNL1        0.1671
     28 F          65.8101   96.3110    9.9826 F       1  UNL1       -0.2018
     29 C          66.2381   94.7430   12.0095 C.ar    1  UNL1        0.0277
     30 C          62.6560   80.2914   12.2212 C.2     1  UNL1        0.3376
     31 O          62.1717   79.3901   13.3180 O.2     1  UNL1       -0.2452
     32 C          62.7306   78.2861   10.5710 C.3     1  UNL1        0.2559
     33 O          62.8003   79.7628   10.8249 O.3     1  UNL1       -0.4415
@<TRIPOS>BOND
     1    32    33    1
     2    33    30    1
     3    30    31    2
     4    30     1    1
     5     1     2    2
     6     2     3    1
     7     3     4    2
     8     4     5    1
     9     5     6    2
    10     6     7   ar
    11     7    14    1
    12    14    15    1
    13    15    16    1
    14    16    17    1
    15    17    20    1
    16    20    21    1
    17    21    22    1
    18    22    23   ar
    19    23    24   ar
    20    24    25   ar
    21    25    26    1
    22    25    27   ar
    23    27    28    1
    24    27    29   ar
    25    17    18    1
    26    18    19    1
    27     7     8   ar
    28     8     9   ar
    29     9    10   ar
    30    10    11   ar
    31    11    12    2
    32    12    13    1
    33    13     1    1
    34    12     4    1
    35    11     6   ar
    36    19    14    1
    37    29    22   ar
@<TRIPOS>MOLECULE
*****
 33 37 0 0 0
SMALL
GASTEIGER

@<TRIPOS>ATOM
      1 C          62.4721   81.8309   13.0816 C.2     1  UNL1        0.0579
      2 C          62.8377   82.4327   11.7572 C.2     1  UNL1        0.0040
      3 C          63.1950   83.8867   11.6671 C.2     1  UNL1        0.0187
      4 C          63.1867   84.7390   12.9014 C.2     1  UNL1        0.0793
      5 N          63.4912   86.1913   13.1205 N.2     1  UNL1       -0.2413
      6 C          63.3139   86.4870   14.5804 C.ar    1  UNL1        0.1301
      7 C          63.4760   87.7483   15.3758 C.ar    1  UNL1        0.1528
      8 N          63.2240   87.7401   16.8544 N.ar    1  UNL1       -0.2074
      9 C          62.8097   86.4706   17.5376 C.ar    1  UNL1        0.2001
     10 N          62.6476   85.2093   16.7421 N.ar    1  UNL1       -0.2226
     11 C          62.8997   85.2175   15.2635 C.ar    1  UNL1        0.1011
     12 C          62.8210   84.1371   14.2258 C.2     1  UNL1        0.0193
     13 C          62.4638   82.6831   14.3159 C.3     1  UNL1        0.0623
     14 N          63.8903   89.0179   14.6926 N.pl3   1  UNL1       -0.2891
     15 C          63.5184   89.2538   13.2587 C.3     1  UNL1        0.1095
     16 C          63.9326   90.5234   12.5756 C.3     1  UNL1        0.0939
     17 N          64.7187   91.5570   13.3264 N.3     1  UNL1       -0.2695
     18 C          65.0906   91.3211   14.7603 C.3     1  UNL1        0.0939
     19 C          64.6764   90.0516   15.4434 C.3     1  UNL1        0.1095
     20 C          65.1330   92.8266   12.6433 C.3     1  UNL1        0.0769
     21 C          66.5247   92.9672   12.1019 C.3     1  UNL1        0.0437
     22 C          66.8039   93.9395   10.9942 C.ar    1  UNL1       -0.0184
     23 C          66.5216   95.3997   11.1891 C.ar    1  UNL1       -0.0018
     24 C          66.8008   96.3719   10.0814 C.ar    1  UNL1        0.0316
     25 C          67.3622   95.8838    8.7789 C.ar    1  UNL1        0.1674
     26 F          67.6414   96.8560    7.6712 F       1  UNL1       -0.2018
     27 C          67.6444   94.4236    8.5840 C.ar    1  UNL1        0.1671
     28 F          68.2059   93.9355    7.2814 F       1  UNL1       -0.2018
     29 C          67.3653   93.4513    9.6917 C.ar    1  UNL1        0.0277
     30 C          62.1148   80.3768   13.1716 C.2     1  UNL1        0.3376
     31 O          62.7089   79.3972   12.2036 O.2     1  UNL1       -0.2452
     32 C          59.7310   80.3472   14.2044 C.3     1  UNL1        0.2559
     33 O          61.1633   79.9025   14.2298 O.3     1  UNL1       -0.4415
@<TRIPOS>BOND
     1    32    33    1
     2    33    30    1
     3    30    31    2
     4    30     1    1
     5     1     2    2
     6     2     3    1
     7     3     4    2
     8     4     5    1
     9     5     6    2
    10     6     7   ar
    11     7    14    1
    12    14    15    1
    13    15    16    1
    14    16    17    1
    15    17    20    1
    16    20    21    1
    17    21    22    1
    18    22    23   ar
    19    23    24   ar
    20    24    25   ar
    21    25    26    1
    22    25    27   ar
    23    27    28    1
    24    27    29   ar
    25    17    18    1
    26    18    19    1
    27     7     8   ar
    28     8     9   ar
    29     9    10   ar
    30    10    11   ar
    31    11    12    2
    32    12    13    1
    33    13     1    1
    34    12     4    1
    35    11     6   ar
    36    19    14    1
    37    29    22   ar
@<TRIPOS>MOLECULE
*****
 33 37 0 0 0
SMALL
GASTEIGER

@<TRIPOS>ATOM
      1 C          62.6345   82.2962   13.3749 C.2     1  UNL1        0.0579
      2 C          63.2614   82.9162   12.1614 C.2     1  UNL1        0.0040
      3 C          63.7024   84.3495   12.1945 C.2     1  UNL1        0.0187
      4 C          63.5164   85.1629   13.4410 C.2     1  UNL1        0.0793
      5 N          63.8501   86.5881   13.7686 N.2     1  UNL1       -0.2413
      6 C          63.4294   86.8489   15.1846 C.ar    1  UNL1        0.1301
      7 C          63.5103   88.0741   16.0461 C.ar    1  UNL1        0.1528
      8 N          62.9975   88.0353   17.4552 N.ar    1  UNL1       -0.2074
      9 C          62.4038   86.7713   18.0027 C.ar    1  UNL1        0.2001
     10 N          62.3229   85.5461   17.1411 N.ar    1  UNL1       -0.2226
     11 C          62.8357   85.5849   15.7321 C.ar    1  UNL1        0.1011
     12 C          62.8895   84.5429   14.6544 C.2     1  UNL1        0.0193
     13 C          62.4485   83.1095   14.6214 C.3     1  UNL1        0.0623
     14 N          64.1041   89.3382   15.4986 N.pl3   1  UNL1       -0.2891
     15 C          64.1637   90.5700   16.3525 C.3     1  UNL1        0.1095
     16 C          64.7574   91.8340   15.8050 C.3     1  UNL1        0.0939
     17 N          65.2915   91.8662   14.4037 N.3     1  UNL1       -0.2695
     18 C          65.2320   90.6344   13.5498 C.3     1  UNL1        0.0939
     19 C          64.6383   89.3704   14.0973 C.3     1  UNL1        0.1095
     20 C          65.8853   93.1302   13.8562 C.3     1  UNL1        0.0769
     21 C          65.5929   93.5463   12.4450 C.3     1  UNL1        0.0437
     22 C          66.5603   93.2114   11.3486 C.ar    1  UNL1       -0.0184
     23 C          67.5132   92.0648   11.5134 C.ar    1  UNL1       -0.0018
     24 C          68.4805   91.7300   10.4170 C.ar    1  UNL1        0.0316
     25 C          68.4949   92.5417    9.1558 C.ar    1  UNL1        0.1674
     26 F          69.4623   92.2069    8.0593 F       1  UNL1       -0.2018
     27 C          67.5420   93.6884    8.9909 C.ar    1  UNL1        0.1671
     28 F          67.5564   94.5001    7.7296 F       1  UNL1       -0.2018
     29 C          66.5746   94.0232   10.0873 C.ar    1  UNL1        0.0277
     30 C          62.1935   80.8628   13.3418 C.2     1  UNL1        0.3376
     31 O          62.6990   79.9473   12.2666 O.2     1  UNL1       -0.2452
     32 C          59.7668   80.4051   14.1490 C.3     1  UNL1        0.2559
     33 O          61.2471   80.3451   14.3840 O.3     1  UNL1       -0.4415
@<TRIPOS>BOND
     1    32    33    1
     2    33    30    1
     3    30    31    2
     4    30     1    1
     5     1     2    2
     6     2     3    1
     7     3     4    2
     8     4     5    1
     9     5     6    2
    10     6     7   ar
    11     7    14    1
    12    14    15    1
    13    15    16    1
    14    16    17    1
    15    17    20    1
    16    20    21    1
    17    21    22    1
    18    22    23   ar
    19    23    24   ar
    20    24    25   ar
    21    25    26    1
    22    25    27   ar
    23    27    28    1
    24    27    29   ar
    25    17    18    1
    26    18    19    1
    27     7     8   ar
    28     8     9   ar
    29     9    10   ar
    30    10    11   ar
    31    11    12    2
    32    12    13    1
    33    13     1    1
    34    12     4    1
    35    11     6   ar
    36    19    14    1
    37    29    22   ar
@<TRIPOS>MOLECULE
*****
 33 37 0 0 0
SMALL
GASTEIGER

@<TRIPOS>ATOM
      1 C          59.3662   90.1435    6.3253 C.2     1  UNL1        0.0579
      2 C          58.0225   90.6466    5.8879 C.2     1  UNL1        0.0040
      3 C          57.9097   91.5362    4.6854 C.2     1  UNL1        0.0187
      4 C          59.1406   91.9226    3.9203 C.2     1  UNL1        0.0793
      5 N          59.3394   92.7786    2.7047 N.2     1  UNL1       -0.2413
      6 C          60.8060   92.8046    2.3908 C.ar    1  UNL1        0.1301
      7 C          61.5884   93.4846    1.3067 C.ar    1  UNL1        0.1528
      8 N          63.0786   93.3246    1.2442 N.ar    1  UNL1       -0.2074
      9 C          63.7862   92.4846    2.2658 C.ar    1  UNL1        0.2001
     10 N          63.0037   91.8045    3.3498 N.ar    1  UNL1       -0.2226
     11 C          61.5136   91.9646    3.4123 C.ar    1  UNL1        0.1011
     12 C          60.4843   91.4194    4.3576 C.2     1  UNL1        0.0193
     13 C          60.5971   90.5299    5.5601 C.3     1  UNL1        0.0623
     14 N          60.8808   94.3247    0.2851 N.pl3   1  UNL1       -0.2891
     15 C          59.7620   95.2316    0.7045 C.3     1  UNL1        0.1095
     16 C          59.0545   96.0716   -0.3171 C.3     1  UNL1        0.0939
     17 N          59.4657   96.0047   -1.7581 N.3     1  UNL1       -0.2695
     18 C          60.5844   95.0978   -2.1775 C.3     1  UNL1        0.0939
     19 C          61.2920   94.2578   -1.1559 C.3     1  UNL1        0.1095
     20 C          58.7581   96.8447   -2.7797 C.3     1  UNL1        0.0769
     21 C          57.7188   96.2279   -3.6682 C.3     1  UNL1        0.0437
     22 C          57.1611   94.8740   -3.3422 C.ar    1  UNL1       -0.0184
     23 C          56.0958   94.7338   -2.2956 C.ar    1  UNL1       -0.0018
     24 C          55.5382   93.3800   -1.9697 C.ar    1  UNL1        0.0316
     25 C          56.0460   92.1664   -2.6904 C.ar    1  UNL1        0.1674
     26 F          55.4884   90.8126   -2.3645 F       1  UNL1       -0.2018
     27 C          57.1113   92.3066   -3.7370 C.ar    1  UNL1        0.1671
     28 F          57.6190   91.0930   -4.4578 F       1  UNL1       -0.2018
     29 C          57.6689   93.6605   -4.0630 C.ar    1  UNL1        0.0277
     30 C          59.4790   89.2540    7.5278 C.2     1  UNL1        0.3376
     31 O          60.3650   89.6484    8.6720 O.2     1  UNL1       -0.2452
     32 C          59.4143   86.6803    7.8767 C.3     1  UNL1        0.2559
     33 O          58.7057   87.9700    7.5861 O.3     1  UNL1       -0.4415
@<TRIPOS>BOND
     1    32    33    1
     2    33    30    1
     3    30    31    2
     4    30     1    1
     5     1     2    2
     6     2     3    1
     7     3     4    2
     8     4     5    1
     9     5     6    2
    10     6     7   ar
    11     7    14    1
    12    14    15    1
    13    15    16    1
    14    16    17    1
    15    17    20    1
    16    20    21    1
    17    21    22    1
    18    22    23   ar
    19    23    24   ar
    20    24    25   ar
    21    25    26    1
    22    25    27   ar
    23    27    28    1
    24    27    29   ar
    25    17    18    1
    26    18    19    1
    27     7     8   ar
    28     8     9   ar
    29     9    10   ar
    30    10    11   ar
    31    11    12    2
    32    12    13    1
    33    13     1    1
    34    12     4    1
    35    11     6   ar
    36    19    14    1
    37    29    22   ar
@<TRIPOS>MOLECULE
*****
 33 37 0 0 0
SMALL
GASTEIGER

@<TRIPOS>ATOM
      1 C          63.0265   82.2286   13.6794 C.2     1  UNL1        0.0579
      2 C          63.9818   82.9367   14.5936 C.2     1  UNL1        0.0040
      3 C          64.2401   84.4039   14.4179 C.2     1  UNL1        0.0187
      4 C          63.5429   85.1628   13.3280 C.2     1  UNL1        0.0793
      5 N          63.5971   86.6040   12.9156 N.2     1  UNL1       -0.2413
      6 C          62.6753   86.7865   11.7464 C.ar    1  UNL1        0.1301
      7 C          62.3234   87.9907   10.9242 C.ar    1  UNL1        0.1528
      8 N          61.3476   87.8665    9.7918 N.ar    1  UNL1       -0.2074
      9 C          60.7236   86.5382    9.4817 C.ar    1  UNL1        0.2001
     10 N          61.0755   85.3341   10.3040 N.ar    1  UNL1       -0.2226
     11 C          62.0513   85.4582   11.4363 C.ar    1  UNL1        0.1011
     12 C          62.5876   84.4547   12.4138 C.2     1  UNL1        0.0193
     13 C          62.3294   82.9876   12.5895 C.3     1  UNL1        0.0623
     14 N          62.9474   89.3191   11.2343 N.pl3   1  UNL1       -0.2891
     15 C          63.2058   90.3022   10.1312 C.3     1  UNL1        0.1095
     16 C          63.8297   91.6305   10.4414 C.3     1  UNL1        0.0939
     17 N          64.1953   91.9758   11.8546 N.3     1  UNL1       -0.2695
     18 C          63.9369   90.9927   12.9577 C.3     1  UNL1        0.0939
     19 C          63.3129   89.6644   12.6476 C.3     1  UNL1        0.1095
     20 C          64.8192   93.3041   12.1647 C.3     1  UNL1        0.0769
     21 C          66.3121   93.4344   12.2304 C.3     1  UNL1        0.0437
     22 C          67.0422   93.0693   13.4889 C.ar    1  UNL1       -0.0184
     23 C          67.2971   91.6279   13.8168 C.ar    1  UNL1       -0.0018
     24 C          68.0272   91.2628   15.0752 C.ar    1  UNL1        0.0316
     25 C          68.5023   92.3390   16.0058 C.ar    1  UNL1        0.1674
     26 F          69.2324   91.9739   17.2642 F       1  UNL1       -0.2018
     27 C          68.2474   93.7804   15.6780 C.ar    1  UNL1        0.1671
     28 F          68.7225   94.8566   16.6086 F       1  UNL1       -0.2018
     29 C          67.5173   94.1456   14.4195 C.ar    1  UNL1        0.0277
     30 C          62.7683   80.7615   13.8551 C.2     1  UNL1        0.3376
     31 O          63.8297   79.8779   14.4404 O.2     1  UNL1       -0.2452
     32 C          60.1900   80.6106   14.1373 C.3     1  UNL1        0.2559
     33 O          61.4486   80.1779   13.4454 O.3     1  UNL1       -0.4415
@<TRIPOS>BOND
     1    32    33    1
     2    33    30    1
     3    30    31    2
     4    30     1    1
     5     1     2    2
     6     2     3    1
     7     3     4    2
     8     4     5    1
     9     5     6    2
    10     6     7   ar
    11     7    14    1
    12    14    15    1
    13    15    16    1
    14    16    17    1
    15    17    20    1
    16    20    21    1
    17    21    22    1
    18    22    23   ar
    19    23    24   ar
    20    24    25   ar
    21    25    26    1
    22    25    27   ar
    23    27    28    1
    24    27    29   ar
    25    17    18    1
    26    18    19    1
    27     7     8   ar
    28     8     9   ar
    29     9    10   ar
    30    10    11   ar
    31    11    12    2
    32    12    13    1
    33    13     1    1
    34    12     4    1
    35    11     6   ar
    36    19    14    1
    37    29    22   ar
@<TRIPOS>MOLECULE
*****
 33 37 0 0 0
SMALL
GASTEIGER

@<TRIPOS>ATOM
      1 C          59.3170   89.5121    6.9548 C.2     1  UNL1        0.0579
      2 C          58.9430   88.0689    7.1197 C.2     1  UNL1        0.0040
      3 C          59.5361   87.2635    8.2375 C.2     1  UNL1        0.0187
      4 C          60.5031   87.9012    9.1904 C.2     1  UNL1        0.0793
      5 N          61.2442   87.3632   10.3784 N.2     1  UNL1       -0.2413
      6 C          62.0762   88.4739   10.9477 C.ar    1  UNL1        0.1301
      7 C          63.0110   88.5285   12.1195 C.ar    1  UNL1        0.1528
      8 N          63.7190   89.8076   12.4551 N.ar    1  UNL1       -0.2074
      9 C          63.4921   91.0321   11.6190 C.ar    1  UNL1        0.2001
     10 N          62.5572   90.9775   10.4472 N.ar    1  UNL1       -0.2226
     11 C          61.8493   89.6984   10.1116 C.ar    1  UNL1        0.1011
     12 C          60.8770   89.3444    9.0255 C.2     1  UNL1        0.0193
     13 C          60.2840   90.1499    7.9077 C.3     1  UNL1        0.0623
     14 N          63.2379   87.3039   12.9556 N.pl3   1  UNL1       -0.2891
     15 C          62.6055   86.0011   12.5648 C.3     1  UNL1        0.1095
     16 C          62.8324   84.7767   13.4010 C.3     1  UNL1        0.0939
     17 N          63.6917   84.8550   14.6280 N.3     1  UNL1       -0.2695
     18 C          64.3241   86.1579   15.0188 C.3     1  UNL1        0.0939
     19 C          64.0972   87.3823   14.1826 C.3     1  UNL1        0.1095
     20 C          63.9186   83.6306   15.4642 C.3     1  UNL1        0.0769
     21 C          64.5648   82.4192   14.8602 C.3     1  UNL1        0.0437
     22 C          64.0749   81.8836   13.5474 C.ar    1  UNL1       -0.0184
     23 C          63.1070   80.7381   13.5190 C.ar    1  UNL1       -0.0018
     24 C          62.6170   80.2026   12.2063 C.ar    1  UNL1        0.0316
     25 C          63.0950   80.8127   10.9220 C.ar    1  UNL1        0.1674
     26 F          62.6051   80.2772    9.6093 F       1  UNL1       -0.2018
     27 C          64.0629   81.9582   10.9504 C.ar    1  UNL1        0.1671
     28 F          64.5409   82.5683    9.6661 F       1  UNL1       -0.2018
     29 C          64.5529   82.4938   12.2632 C.ar    1  UNL1        0.0277
     30 C          58.7239   90.3176    5.8369 C.2     1  UNL1        0.3376
     31 O          57.2367   90.4890    5.7430 O.2     1  UNL1       -0.2452
     32 C          59.3869   92.3728    4.3925 C.3     1  UNL1        0.2559
     33 O          59.6180   90.9516    4.8130 O.3     1  UNL1       -0.4415
@<TRIPOS>BOND
     1    32    33    1
     2    33    30    1
     3    30    31    2
     4    30     1    1
     5     1     2    2
     6     2     3    1
     7     3     4    2
     8     4     5    1
     9     5     6    2
    10     6     7   ar
    11     7    14    1
    12    14    15    1
    13    15    16    1
    14    16    17    1
    15    17    20    1
    16    20    21    1
    17    21    22    1
    18    22    23   ar
    19    23    24   ar
    20    24    25   ar
    21    25    26    1
    22    25    27   ar
    23    27    28    1
    24    27    29   ar
    25    17    18    1
    26    18    19    1
    27     7     8   ar
    28     8     9   ar
    29     9    10   ar
    30    10    11   ar
    31    11    12    2
    32    12    13    1
    33    13     1    1
    34    12     4    1
    35    11     6   ar
    36    19    14    1
    37    29    22   ar
@<TRIPOS>MOLECULE
*****
 33 37 0 0 0
SMALL
GASTEIGER

@<TRIPOS>ATOM
      1 C          62.6448   81.7451   13.4638 C.2     1  UNL1        0.0579
      2 C          62.8709   82.1628   12.0410 C.2     1  UNL1        0.0040
      3 C          63.1365   83.6027   11.7152 C.2     1  UNL1        0.0187
      4 C          63.1759   84.6249   12.8121 C.2     1  UNL1        0.0793
      5 N          63.4132   86.1059   12.7959 N.2     1  UNL1       -0.2413
      6 C          63.3338   86.6036   14.2087 C.ar    1  UNL1        0.1301
      7 C          63.4852   87.9737   14.8002 C.ar    1  UNL1        0.1528
      8 N          63.3502   88.1703   16.2811 N.ar    1  UNL1       -0.2074
      9 C          63.0638   86.9969   17.1705 C.ar    1  UNL1        0.2001
     10 N          62.9123   85.6269   16.5790 N.ar    1  UNL1       -0.2226
     11 C          63.0473   85.4302   15.0981 C.ar    1  UNL1        0.1011
     12 C          62.9497   84.2073   14.2349 C.2     1  UNL1        0.0193
     13 C          62.6842   82.7674   14.5607 C.3     1  UNL1        0.0623
     14 N          63.7717   89.1472   13.9108 N.pl3   1  UNL1       -0.2891
     15 C          63.2177   89.1851   12.5174 C.3     1  UNL1        0.1095
     16 C          63.5042   90.3585   11.6281 C.3     1  UNL1        0.0939
     17 N          64.3447   91.4941   12.1322 N.3     1  UNL1       -0.2695
     18 C          64.8987   91.4562   13.5256 C.3     1  UNL1        0.0939
     19 C          64.6122   90.2828   14.4149 C.3     1  UNL1        0.1095
     20 C          64.6311   92.6676   11.2429 C.3     1  UNL1        0.0769
     21 C          65.8240   93.5370   11.5094 C.3     1  UNL1        0.0437
     22 C          66.7955   93.1667   12.5908 C.ar    1  UNL1       -0.0184
     23 C          67.8175   92.0963   12.3465 C.ar    1  UNL1       -0.0018
     24 C          68.7889   91.7260   13.4279 C.ar    1  UNL1        0.0316
     25 C          68.7381   92.4261   14.7535 C.ar    1  UNL1        0.1674
     26 F          69.7095   92.0558   15.8349 F       1  UNL1       -0.2018
     27 C          67.7160   93.4964   14.9979 C.ar    1  UNL1        0.1671
     28 F          67.6653   94.1965   16.3235 F       1  UNL1       -0.2018
     29 C          66.7446   93.8668   13.9165 C.ar    1  UNL1        0.0277
     30 C          62.3792   80.3052   13.7896 C.2     1  UNL1        0.3376
     31 O          63.4775   79.4466   14.3431 O.2     1  UNL1       -0.2452
     32 C          59.8115   80.3711   14.1800 C.3     1  UNL1        0.2559
     33 O          61.0153   79.7240   13.5619 O.3     1  UNL1       -0.4415
@<TRIPOS>BOND
     1    32    33    1
     2    33    30    1
     3    30    31    2
     4    30     1    1
     5     1     2    2
     6     2     3    1
     7     3     4    2
     8     4     5    1
     9     5     6    2
    10     6     7   ar
    11     7    14    1
    12    14    15    1
    13    15    16    1
    14    16    17    1
    15    17    20    1
    16    20    21    1
    17    21    22    1
    18    22    23   ar
    19    23    24   ar
    20    24    25   ar
    21    25    26    1
    22    25    27   ar
    23    27    28    1
    24    27    29   ar
    25    17    18    1
    26    18    19    1
    27     7     8   ar
    28     8     9   ar
    29     9    10   ar
    30    10    11   ar
    31    11    12    2
    32    12    13    1
    33    13     1    1
    34    12     4    1
    35    11     6   ar
    36    19    14    1
    37    29    22   ar
@<TRIPOS>MOLECULE
*****
 33 37 0 0 0
SMALL
GASTEIGER

@<TRIPOS>ATOM
      1 C          63.2931   89.2165   12.7973 C.2     1  UNL1        0.0579
      2 C          63.7745   90.5430   12.2888 C.2     1  UNL1        0.0040
      3 C          63.2661   91.0745   10.9815 C.2     1  UNL1        0.0187
      4 C          62.2763   90.2795   10.1827 C.2     1  UNL1        0.0793
      5 N          61.6024   90.5446    8.8691 N.2     1  UNL1       -0.2413
      6 C          60.7044   89.3820    8.5657 C.ar    1  UNL1        0.1301
      7 C          59.7939   89.0921    7.4096 C.ar    1  UNL1        0.1528
      8 N          59.0022   87.8183    7.3795 N.ar    1  UNL1       -0.2074
      9 C          59.1212   86.8346    8.5056 C.ar    1  UNL1        0.2001
     10 N          60.0318   87.1246    9.6617 N.ar    1  UNL1       -0.2226
     11 C          60.8234   88.3983    9.6918 C.ar    1  UNL1        0.1011
     12 C          61.7949   88.9530   10.6911 C.2     1  UNL1        0.0193
     13 C          62.3032   88.4215   11.9985 C.3     1  UNL1        0.0623
     14 N          59.6749   90.0758    6.2834 N.pl3   1  UNL1       -0.2891
     15 C          58.3337   90.6397    5.9186 C.3     1  UNL1        0.1095
     16 C          58.2147   91.6234    4.7925 C.3     1  UNL1        0.0939
     17 N          59.4371   92.0433    4.0312 N.3     1  UNL1       -0.2695
     18 C          60.7784   91.4794    4.3959 C.3     1  UNL1        0.0939
     19 C          60.8973   90.4957    5.5221 C.3     1  UNL1        0.1095
     20 C          59.3182   93.0270    2.9050 C.3     1  UNL1        0.0769
     21 C          60.1178   92.8317    1.6511 C.3     1  UNL1        0.0437
     22 C          61.4104   93.5694    1.4633 C.ar    1  UNL1       -0.0184
     23 C          61.4355   95.0677    1.5305 C.ar    1  UNL1       -0.0018
     24 C          62.7280   95.8053    1.3427 C.ar    1  UNL1        0.0316
     25 C          63.9954   95.0447    1.0878 C.ar    1  UNL1        0.1674
     26 F          65.2880   95.7823    0.9000 F       1  UNL1       -0.2018
     27 C          63.9704   93.5464    1.0207 C.ar    1  UNL1        0.1671
     28 F          65.2379   92.7857    0.7657 F       1  UNL1       -0.2018
     29 C          62.6778   92.8087    1.2084 C.ar    1  UNL1        0.0277
     30 C          63.8015   88.6850   14.1046 C.2     1  UNL1        0.3376
     31 O          64.2163   87.2481   14.2197 O.2     1  UNL1       -0.2452
     32 C          63.2216   89.2101   16.5821 C.3     1  UNL1        0.2559
     33 O          63.8950   89.5904   15.2968 O.3     1  UNL1       -0.4415
@<TRIPOS>BOND
     1    32    33    1
     2    33    30    1
     3    30    31    2
     4    30     1    1
     5     1     2    2
     6     2     3    1
     7     3     4    2
     8     4     5    1
     9     5     6    2
    10     6     7   ar
    11     7    14    1
    12    14    15    1
    13    15    16    1
    14    16    17    1
    15    17    20    1
    16    20    21    1
    17    21    22    1
    18    22    23   ar
    19    23    24   ar
    20    24    25   ar
    21    25    26    1
    22    25    27   ar
    23    27    28    1
    24    27    29   ar
    25    17    18    1
    26    18    19    1
    27     7     8   ar
    28     8     9   ar
    29     9    10   ar
    30    10    11   ar
    31    11    12    2
    32    12    13    1
    33    13     1    1
    34    12     4    1
    35    11     6   ar
    36    19    14    1
    37    29    22   ar
