@<TRIPOS>MOLECULE
*****
 44 47 0 0 0
SMALL
GASTEIGER

@<TRIPOS>ATOM
      1 C          65.2195   85.3803   14.1851 C.3     1  UNL1        0.1484
      2 O          66.6434   85.2202   14.6286 O.3     1  UNL1       -0.3810
      3 H          67.0050   86.0863   14.8739 H       1  UNL1        0.2105
      4 C          64.5851   86.7396   14.1759 C.3     1  UNL1        0.1245
      5 C          63.7754   88.8105   15.5196 C.2     1  UNL1        0.2492
      6 O          63.2821   89.4166   16.8000 O.2     1  UNL1       -0.2699
      7 N          64.0918   87.3456   15.4563 N.am    1  UNL1       -0.2735
      8 C          65.9701   93.0542   11.2852 C.ar    1  UNL1        0.2924
      9 N          64.7333   92.3544   10.8050 N.ar    1  UNL1       -0.1946
     10 C          64.3057   91.3869   11.8685 C.ar    1  UNL1        0.1202
     11 C          63.1564   90.4263   11.9481 C.ar    1  UNL1        0.0225
     12 C          62.9796   89.5675   13.1651 C.ar    1  UNL1        0.0063
     13 C          63.9522   89.6693   14.3026 C.ar    1  UNL1        0.0567
     14 C          65.1015   90.6299   14.2230 C.ar    1  UNL1        0.0437
     15 C          65.2782   91.4887   13.0059 C.ar    1  UNL1        0.1662
     16 O          66.3069   92.5191   12.6454 O.2     1  UNL1       -0.4237
     17 N          66.7357   94.1047   10.5366 N.pl3   1  UNL1       -0.2619
     18 C          66.5288   95.5552   10.8575 C.3     1  UNL1        0.1166
     19 C          68.2796   92.3177    9.4535 C.3     1  UNL1        0.0233
     20 C          67.7083   93.7045    9.4670 C.3     1  UNL1        0.0952
     21 C          63.9150   86.4868   16.6734 C.3     1  UNL1        0.0937
     22 C          62.6031   86.4775   17.4006 C.3     1  UNL1        0.0199
     23 C          61.3600   86.0166   16.6990 C.3     1  UNL1        0.0018
     24 C          62.5343   86.9290   18.8294 C.3     1  UNL1        0.0018
     25 C          64.4299   84.1812   13.7508 C.3     1  UNL1        0.1075
     26 N          64.2008   83.9226   12.2911 N.am    1  UNL1       -0.2695
     27 C          63.0005   84.5050   11.6056 C.2     1  UNL1        0.4020
     28 O          62.0292   85.3460   12.3797 O.2     1  UNL1       -0.2264
     29 H          64.8383   83.3706   11.7830 H       1  UNL1        0.1528
     30 O          62.7714   84.2464   10.1458 O.3     1  UNL1       -0.4296
     31 C          62.9806   85.3461    9.1475 C.3     1  UNL1        0.2382
     32 C          61.9190   86.3860    8.9438 C.ar    1  UNL1        0.0405
     33 C          62.0163   87.7056    9.6505 C.ar    1  UNL1        0.0025
     34 C          60.9546   88.7455    9.4467 C.ar    1  UNL1        0.0205
     35 C          59.7957   88.4659    8.5364 C.ar    1  UNL1        0.0989
     36 N          59.6984   87.1464    7.8297 N.ar    1  UNL1       -0.2425
     37 C          60.7600   86.1065    8.0334 C.ar    1  UNL1        0.0982
     38 C          63.8694   83.2407   14.7761 C.3     1  UNL1        0.0485
     39 C          63.0326   82.0729   14.3447 C.ar    1  UNL1       -0.0204
     40 C          63.6830   80.8741   13.7204 C.ar    1  UNL1       -0.0042
     41 C          62.8463   79.7063   13.2890 C.ar    1  UNL1       -0.0003
     42 C          61.3591   79.7374   13.4820 C.ar    1  UNL1       -0.0000
     43 C          60.7087   80.9362   14.1062 C.ar    1  UNL1       -0.0003
     44 C          61.5455   82.1039   14.5376 C.ar    1  UNL1       -0.0042
@<TRIPOS>BOND
     1    19    20    1
     2    20    17    1
     3    17    18    1
     4    17     8    1
     5     8     9   ar
     6     9    10   ar
     7    10    11   ar
     8    11    12   ar
     9    12    13   ar
    10    13     5    1
    11     5     6    2
    12     5     7   am
    13     7    21    1
    14    21    22    1
    15    22    23    1
    16    22    24    1
    17     7     4    1
    18     4     1    1
    19     1     2    1
    20     1    25    1
    21    25    38    1
    22    38    39    1
    23    39    40   ar
    24    40    41   ar
    25    41    42   ar
    26    42    43   ar
    27    43    44   ar
    28    25    26    1
    29    26    27   am
    30    27    28    2
    31    27    30    1
    32    30    31    1
    33    31    32    1
    34    32    33   ar
    35    33    34   ar
    36    34    35   ar
    37    35    36   ar
    38    36    37   ar
    39    13    14   ar
    40    14    15   ar
    41    15    16   ar
    42    16     8   ar
    43    15    10   ar
    44    44    39   ar
    45    37    32   ar
    46     2     3    1
    47    26    29    1
@<TRIPOS>MOLECULE
*****
 44 47 0 0 0
SMALL
GASTEIGER

@<TRIPOS>ATOM
      1 C          63.5850   87.7473   13.0820 C.3     1  UNL1        0.1484
      2 O          63.3643   88.8567   12.0968 O.3     1  UNL1       -0.3810
      3 H          63.7243   89.6833   12.4547 H       1  UNL1        0.2105
      4 C          64.2742   88.0271   14.3846 C.3     1  UNL1        0.1245
      5 C          63.8671   90.2737   15.6244 C.2     1  UNL1        0.2492
      6 O          63.1643   91.0600   16.6911 O.2     1  UNL1       -0.2699
      7 N          63.5713   88.8134   15.4513 N.am    1  UNL1       -0.2735
      8 C          66.6230   93.4634   10.8299 C.ar    1  UNL1        0.2924
      9 N          67.6116   93.0309   11.8718 N.ar    1  UNL1       -0.1946
     10 C          66.8632   92.2959   12.9441 C.ar    1  UNL1        0.1202
     11 C          67.3156   91.6436   14.2168 C.ar    1  UNL1        0.0225
     12 C          66.3169   90.9695   15.1102 C.ar    1  UNL1        0.0063
     13 C          64.8658   90.9478   14.7309 C.ar    1  UNL1        0.0567
     14 C          64.4134   91.6001   13.4582 C.ar    1  UNL1        0.0437
     15 C          65.4121   92.2741   12.5648 C.ar    1  UNL1        0.1662
     16 O          65.2637   92.9957   11.2582 O.2     1  UNL1       -0.4237
     17 N          66.9384   94.2292    9.5792 N.pl3   1  UNL1       -0.2619
     18 C          66.2936   95.5608    9.3324 C.3     1  UNL1        0.1166
     19 C          68.6075   92.3725    8.8604 C.3     1  UNL1        0.0233
     20 C          67.8987   93.6633    8.5754 C.3     1  UNL1        0.0952
     21 C          62.5726   88.1393   16.3448 C.3     1  UNL1        0.0937
     22 C          62.9930   86.9805   17.1994 C.3     1  UNL1        0.0199
     23 C          62.7217   86.9991   18.6745 C.3     1  UNL1        0.0018
     24 C          63.6846   85.8029   16.5788 C.3     1  UNL1        0.0018
     25 C          63.1164   86.3582   12.7646 C.3     1  UNL1        0.1075
     26 N          61.8781   86.1537   11.9431 N.am    1  UNL1       -0.2695
     27 C          61.9912   85.8528   10.4780 C.2     1  UNL1        0.4020
     28 O          63.3426   85.7563    9.8343 O.2     1  UNL1       -0.2264
     29 H          60.9911   86.2170   12.3656 H       1  UNL1        0.1528
     30 O          60.7529   85.6483    9.6565 O.3     1  UNL1       -0.4296
     31 C          59.9027   86.8239    9.2759 C.3     1  UNL1        0.2382
     32 C          60.1179   88.1514    9.9403 C.ar    1  UNL1        0.0405
     33 C          59.3668   88.4939   11.1927 C.ar    1  UNL1        0.0025
     34 C          59.5821   89.8215   11.8570 C.ar    1  UNL1        0.0205
     35 C          60.5485   90.8065   11.2689 C.ar    1  UNL1        0.0989
     36 N          61.2996   90.4640   10.0165 N.ar    1  UNL1       -0.2425
     37 C          61.0843   89.1365    9.3522 C.ar    1  UNL1        0.0982
     38 C          63.8862   85.1736   13.2687 C.3     1  UNL1        0.0485
     39 C          63.2835   83.8018   13.1972 C.ar    1  UNL1       -0.0204
     40 C          62.4653   83.2815   14.3417 C.ar    1  UNL1       -0.0042
     41 C          61.8626   81.9098   14.2702 C.ar    1  UNL1       -0.0003
     42 C          62.0780   81.0584   13.0542 C.ar    1  UNL1       -0.0000
     43 C          62.8962   81.5787   11.9097 C.ar    1  UNL1       -0.0003
     44 C          63.4989   82.9505   11.9812 C.ar    1  UNL1       -0.0042
@<TRIPOS>BOND
     1    19    20    1
     2    20    17    1
     3    17    18    1
     4    17     8    1
     5     8     9   ar
     6     9    10   ar
     7    10    11   ar
     8    11    12   ar
     9    12    13   ar
    10    13     5    1
    11     5     6    2
    12     5     7   am
    13     7    21    1
    14    21    22    1
    15    22    23    1
    16    22    24    1
    17     7     4    1
    18     4     1    1
    19     1     2    1
    20     1    25    1
    21    25    38    1
    22    38    39    1
    23    39    40   ar
    24    40    41   ar
    25    41    42   ar
    26    42    43   ar
    27    43    44   ar
    28    25    26    1
    29    26    27   am
    30    27    28    2
    31    27    30    1
    32    30    31    1
    33    31    32    1
    34    32    33   ar
    35    33    34   ar
    36    34    35   ar
    37    35    36   ar
    38    36    37   ar
    39    13    14   ar
    40    14    15   ar
    41    15    16   ar
    42    16     8   ar
    43    15    10   ar
    44    44    39   ar
    45    37    32   ar
    46     2     3    1
    47    26    29    1
@<TRIPOS>MOLECULE
*****
 44 47 0 0 0
SMALL
GASTEIGER

@<TRIPOS>ATOM
      1 C          63.6087   88.0152   12.9831 C.3     1  UNL1        0.1484
      2 O          63.5315   89.1616   12.0189 O.3     1  UNL1       -0.3810
      3 H          63.9532   89.9424   12.4106 H       1  UNL1        0.2105
      4 C          64.2699   88.2000   14.3168 C.3     1  UNL1        0.1245
      5 C          63.9080   90.4606   15.5451 C.2     1  UNL1        0.2492
      6 O          63.2284   91.2639   16.6142 O.2     1  UNL1       -0.2699
      7 N          63.5904   89.0033   15.3859 N.am    1  UNL1       -0.2735
      8 C          66.6439   93.6294   10.7253 C.ar    1  UNL1        0.2924
      9 N          67.6441   93.1487   11.7346 N.ar    1  UNL1       -0.1946
     10 C          66.8996   92.4227   12.8156 C.ar    1  UNL1        0.1202
     11 C          67.3627   91.7367   14.0665 C.ar    1  UNL1        0.0225
     12 C          66.3655   91.0827   14.9763 C.ar    1  UNL1        0.0063
     13 C          64.9052   91.1147   14.6352 C.ar    1  UNL1        0.0567
     14 C          64.4420   91.8007   13.3843 C.ar    1  UNL1        0.0437
     15 C          65.4392   92.4547   12.4745 C.ar    1  UNL1        0.1662
     16 O          65.2812   93.2005   11.1827 O.2     1  UNL1       -0.4237
     17 N          66.9522   94.4031    9.4778 N.pl3   1  UNL1       -0.2619
     18 C          67.8555   93.8151    8.4346 C.3     1  UNL1        0.1166
     19 C          67.1767   96.8553    8.6496 C.3     1  UNL1        0.0233
     20 C          66.3573   95.7648    9.2735 C.3     1  UNL1        0.0952
     21 C          62.5931   88.3492   16.2958 C.3     1  UNL1        0.0937
     22 C          62.9910   87.1525   17.1080 C.3     1  UNL1        0.0199
     23 C          62.7771   87.1490   18.5926 C.3     1  UNL1        0.0018
     24 C          63.6027   85.9594   16.4354 C.3     1  UNL1        0.0018
     25 C          63.0246   86.6838   12.6137 C.3     1  UNL1        0.1075
     26 N          61.9076   86.6058   11.6155 N.am    1  UNL1       -0.2695
     27 C          60.9259   87.7338   11.4988 C.2     1  UNL1        0.4020
     28 O          61.0611   88.9400   12.3803 O.2     1  UNL1       -0.2264
     29 H          61.8188   85.8141   11.0370 H       1  UNL1        0.1528
     30 O          59.8089   87.6558   10.5007 O.3     1  UNL1       -0.4296
     31 C          60.1006   87.7968    9.0361 C.3     1  UNL1        0.2382
     32 C          60.7698   86.6785    8.2936 C.ar    1  UNL1        0.0405
     33 C          62.1994   86.3327    8.5879 C.ar    1  UNL1        0.0025
     34 C          62.8687   85.2142    7.8453 C.ar    1  UNL1        0.0205
     35 C          62.1083   84.4416    6.8086 C.ar    1  UNL1        0.0989
     36 N          60.6786   84.7874    6.5144 N.ar    1  UNL1       -0.2425
     37 C          60.0094   85.9058    7.2568 C.ar    1  UNL1        0.0982
     38 C          63.5576   85.4306   13.2424 C.3     1  UNL1        0.0485
     39 C          63.4160   84.1167   12.5327 C.ar    1  UNL1       -0.0204
     40 C          62.6272   83.0062   13.1607 C.ar    1  UNL1       -0.0042
     41 C          62.4856   81.6923   12.4510 C.ar    1  UNL1       -0.0003
     42 C          63.1329   81.4889   11.1133 C.ar    1  UNL1       -0.0000
     43 C          63.9217   82.5994   10.4853 C.ar    1  UNL1       -0.0003
     44 C          64.0633   83.9133   11.1950 C.ar    1  UNL1       -0.0042
@<TRIPOS>BOND
     1    19    20    1
     2    20    17    1
     3    17    18    1
     4    17     8    1
     5     8     9   ar
     6     9    10   ar
     7    10    11   ar
     8    11    12   ar
     9    12    13   ar
    10    13     5    1
    11     5     6    2
    12     5     7   am
    13     7    21    1
    14    21    22    1
    15    22    23    1
    16    22    24    1
    17     7     4    1
    18     4     1    1
    19     1     2    1
    20     1    25    1
    21    25    38    1
    22    38    39    1
    23    39    40   ar
    24    40    41   ar
    25    41    42   ar
    26    42    43   ar
    27    43    44   ar
    28    25    26    1
    29    26    27   am
    30    27    28    2
    31    27    30    1
    32    30    31    1
    33    31    32    1
    34    32    33   ar
    35    33    34   ar
    36    34    35   ar
    37    35    36   ar
    38    36    37   ar
    39    13    14   ar
    40    14    15   ar
    41    15    16   ar
    42    16     8   ar
    43    15    10   ar
    44    44    39   ar
    45    37    32   ar
    46     2     3    1
    47    26    29    1
@<TRIPOS>MOLECULE
*****
 44 47 0 0 0
SMALL
GASTEIGER

@<TRIPOS>ATOM
      1 C          62.3341   85.6148   11.1003 C.3     1  UNL1        0.1484
      2 O          61.1380   85.9686   11.9334 O.3     1  UNL1       -0.3810
      3 H          60.6264   86.6613   11.4869 H       1  UNL1        0.2105
      4 C          62.5717   86.3135    9.7943 C.3     1  UNL1        0.1245
      5 C          60.9220   88.2120    9.1434 C.2     1  UNL1        0.2492
      6 O          59.7590   88.7009    8.3319 O.2     1  UNL1       -0.2699
      7 N          61.4088   86.8024    8.9829 N.am    1  UNL1       -0.2735
      8 C          64.8273   92.4947   11.8201 C.ar    1  UNL1        0.2924
      9 N          63.8097   91.9657   12.7870 N.ar    1  UNL1       -0.1946
     10 C          62.9504   90.9745   12.0595 C.ar    1  UNL1        0.1202
     11 C          61.7879   90.1374   12.5040 C.ar    1  UNL1        0.0225
     12 C          61.1117   89.2165   11.5319 C.ar    1  UNL1        0.0063
     13 C          61.5982   89.1329   10.1155 C.ar    1  UNL1        0.0567
     14 C          62.7607   89.9701    9.6710 C.ar    1  UNL1        0.0437
     15 C          63.4368   90.8909   10.6431 C.ar    1  UNL1        0.1662
     16 O          64.5968   91.8304   10.4951 O.2     1  UNL1       -0.4237
     17 N          65.8888   93.5097   12.1247 N.pl3   1  UNL1       -0.2619
     18 C          66.1066   94.6685   11.1976 C.3     1  UNL1        0.1166
     19 C          67.2125   92.0101   13.7827 C.3     1  UNL1        0.0233
     20 C          66.7327   93.3658   13.3564 C.3     1  UNL1        0.0952
     21 C          60.7326   85.8815    8.0108 C.3     1  UNL1        0.0937
     22 C          61.5541   85.0151    7.1028 C.3     1  UNL1        0.0199
     23 C          63.0203   84.8347    7.3625 C.3     1  UNL1        0.0018
     24 C          60.9092   84.3292    5.9349 C.3     1  UNL1        0.0018
     25 C          63.2927   84.5623   11.5731 C.3     1  UNL1        0.1075
     26 N          64.0194   84.7394   12.8734 N.am    1  UNL1       -0.2695
     27 C          63.2603   84.7106   14.1668 C.2     1  UNL1        0.4020
     28 O          61.7745   84.5048   14.1600 O.2     1  UNL1       -0.2264
     29 H          64.9946   84.8745   12.8778 H       1  UNL1        0.1528
     30 O          63.9870   84.8877   15.4670 O.3     1  UNL1       -0.4296
     31 C          63.5057   85.9003   16.4634 C.3     1  UNL1        0.2382
     32 C          63.6396   87.3649   16.1687 C.ar    1  UNL1        0.0405
     33 C          64.3996   87.8199   14.9582 C.ar    1  UNL1        0.0025
     34 C          64.5335   89.2846   14.6634 C.ar    1  UNL1        0.0205
     35 C          63.9074   90.2942   15.5792 C.ar    1  UNL1        0.0989
     36 N          63.1473   89.8392   16.7897 N.ar    1  UNL1       -0.2425
     37 C          63.0134   88.3746   17.0844 C.ar    1  UNL1        0.0982
     38 C          63.5245   83.3329   10.7457 C.3     1  UNL1        0.0485
     39 C          63.1611   81.9831   11.2899 C.ar    1  UNL1       -0.0204
     40 C          62.7897   81.8323   12.7353 C.ar    1  UNL1       -0.0042
     41 C          62.4264   80.4826   13.2794 C.ar    1  UNL1       -0.0003
     42 C          62.4344   79.2836   12.3782 C.ar    1  UNL1       -0.0000
     43 C          62.8058   79.4344   10.9328 C.ar    1  UNL1       -0.0003
     44 C          63.1692   80.7841   10.3886 C.ar    1  UNL1       -0.0042
@<TRIPOS>BOND
     1    19    20    1
     2    20    17    1
     3    17    18    1
     4    17     8    1
     5     8     9   ar
     6     9    10   ar
     7    10    11   ar
     8    11    12   ar
     9    12    13   ar
    10    13     5    1
    11     5     6    2
    12     5     7   am
    13     7    21    1
    14    21    22    1
    15    22    23    1
    16    22    24    1
    17     7     4    1
    18     4     1    1
    19     1     2    1
    20     1    25    1
    21    25    38    1
    22    38    39    1
    23    39    40   ar
    24    40    41   ar
    25    41    42   ar
    26    42    43   ar
    27    43    44   ar
    28    25    26    1
    29    26    27   am
    30    27    28    2
    31    27    30    1
    32    30    31    1
    33    31    32    1
    34    32    33   ar
    35    33    34   ar
    36    34    35   ar
    37    35    36   ar
    38    36    37   ar
    39    13    14   ar
    40    14    15   ar
    41    15    16   ar
    42    16     8   ar
    43    15    10   ar
    44    44    39   ar
    45    37    32   ar
    46     2     3    1
    47    26    29    1
@<TRIPOS>MOLECULE
*****
 44 47 0 0 0
SMALL
GASTEIGER

@<TRIPOS>ATOM
      1 C          62.6293   86.0163   10.2624 C.3     1  UNL1        0.1484
      2 O          62.8185   85.7594    8.7968 O.3     1  UNL1       -0.3810
      3 H          62.7482   86.5955    8.3102 H       1  UNL1        0.2105
      4 C          62.3767   87.4113   10.7528 C.3     1  UNL1        0.1245
      5 C          61.0906   89.6405   10.3974 C.2     1  UNL1        0.2492
      6 O          59.8520   90.3721    9.9724 O.2     1  UNL1       -0.2699
      7 N          61.1381   88.1429   10.3278 N.am    1  UNL1       -0.2735
      8 C          65.6102   92.2154   14.0988 C.ar    1  UNL1        0.2924
      9 N          65.7694   92.5923   12.6557 N.ar    1  UNL1       -0.1946
     10 C          64.6637   91.9386   11.8810 C.ar    1  UNL1        0.1202
     11 C          64.3154   91.9535   10.4221 C.ar    1  UNL1        0.0225
     12 C          63.1243   91.1875    9.9276 C.ar    1  UNL1        0.0063
     13 C          62.2817   90.4065   10.8920 C.ar    1  UNL1        0.0567
     14 C          62.6300   90.3916   12.3509 C.ar    1  UNL1        0.0437
     15 C          63.8211   91.1576   12.8454 C.ar    1  UNL1        0.1662
     16 O          64.4060   91.3287   14.2160 O.2     1  UNL1       -0.4237
     17 N          66.4990   92.6491   15.2266 N.pl3   1  UNL1       -0.2619
     18 C          66.0166   92.5476   16.6432 C.3     1  UNL1        0.1166
     19 C          68.9239   93.1624   16.0050 C.3     1  UNL1        0.0233
     20 C          67.8701   93.1842   14.9377 C.3     1  UNL1        0.0952
     21 C          59.9470   87.3768    9.8332 C.3     1  UNL1        0.0937
     22 C          59.6959   87.2500    8.3599 C.3     1  UNL1        0.0199
     23 C          59.3229   88.4600    7.5557 C.3     1  UNL1        0.0018
     24 C          59.8178   85.9130    7.6907 C.3     1  UNL1        0.0018
     25 C          62.6926   84.8784   11.2377 C.3     1  UNL1        0.1075
     26 N          63.3200   85.0796   12.5852 N.am    1  UNL1       -0.2695
     27 C          64.5646   84.3275   12.9529 C.2     1  UNL1        0.4020
     28 O          65.1818   83.3741   11.9730 O.2     1  UNL1       -0.2264
     29 H          62.9149   85.7054   13.2284 H       1  UNL1        0.1528
     30 O          65.1921   84.5287   14.3005 O.3     1  UNL1       -0.4296
     31 C          64.3262   84.6772   15.5163 C.3     1  UNL1        0.2382
     32 C          63.8892   86.0405   15.9638 C.ar    1  UNL1        0.0405
     33 C          63.1470   86.2033   17.2571 C.ar    1  UNL1        0.0025
     34 C          62.7100   87.5667   17.7046 C.ar    1  UNL1        0.0205
     35 C          63.0152   88.7673   16.8587 C.ar    1  UNL1        0.0989
     36 N          63.7573   88.6045   15.5654 N.ar    1  UNL1       -0.2425
     37 C          64.1944   87.2412   15.1179 C.ar    1  UNL1        0.0982
     38 C          62.1284   83.5393   10.8654 C.3     1  UNL1        0.0485
     39 C          62.2195   82.3931   11.8286 C.ar    1  UNL1       -0.0204
     40 C          61.8014   82.5788   13.2571 C.ar    1  UNL1       -0.0042
     41 C          61.8925   81.4325   14.2203 C.ar    1  UNL1       -0.0003
     42 C          62.4017   80.1005   13.7551 C.ar    1  UNL1       -0.0000
     43 C          62.8198   79.9148   12.3266 C.ar    1  UNL1       -0.0003
     44 C          62.7287   81.0611   11.3633 C.ar    1  UNL1       -0.0042
@<TRIPOS>BOND
     1    19    20    1
     2    20    17    1
     3    17    18    1
     4    17     8    1
     5     8     9   ar
     6     9    10   ar
     7    10    11   ar
     8    11    12   ar
     9    12    13   ar
    10    13     5    1
    11     5     6    2
    12     5     7   am
    13     7    21    1
    14    21    22    1
    15    22    23    1
    16    22    24    1
    17     7     4    1
    18     4     1    1
    19     1     2    1
    20     1    25    1
    21    25    38    1
    22    38    39    1
    23    39    40   ar
    24    40    41   ar
    25    41    42   ar
    26    42    43   ar
    27    43    44   ar
    28    25    26    1
    29    26    27   am
    30    27    28    2
    31    27    30    1
    32    30    31    1
    33    31    32    1
    34    32    33   ar
    35    33    34   ar
    36    34    35   ar
    37    35    36   ar
    38    36    37   ar
    39    13    14   ar
    40    14    15   ar
    41    15    16   ar
    42    16     8   ar
    43    15    10   ar
    44    44    39   ar
    45    37    32   ar
    46     2     3    1
    47    26    29    1
@<TRIPOS>MOLECULE
*****
 44 47 0 0 0
SMALL
GASTEIGER

@<TRIPOS>ATOM
      1 C          63.2630   87.9422   12.6198 C.3     1  UNL1        0.1484
      2 O          62.8632   89.1182   11.7788 O.3     1  UNL1       -0.3810
      3 H          63.2451   89.9277   12.1526 H       1  UNL1        0.2105
      4 C          64.1278   88.1441   13.8288 C.3     1  UNL1        0.1245
      5 C          63.9503   90.2123   15.3911 C.2     1  UNL1        0.2492
      6 O          63.3864   90.8713   16.6150 O.2     1  UNL1       -0.2699
      7 N          63.5639   88.8031   15.0526 N.am    1  UNL1       -0.2735
      8 C          66.4575   93.7529   10.7076 C.ar    1  UNL1        0.2924
      9 N          67.4932   93.2800   11.6841 N.ar    1  UNL1       -0.1946
     10 C          66.8011   92.4635   12.7350 C.ar    1  UNL1        0.1202
     11 C          67.3144   91.7449   13.9474 C.ar    1  UNL1        0.0225
     12 C          66.3641   90.9945   14.8327 C.ar    1  UNL1        0.0063
     13 C          64.9005   90.9628   14.5057 C.ar    1  UNL1        0.0567
     14 C          64.3872   91.6814   13.2933 C.ar    1  UNL1        0.0437
     15 C          65.3375   92.4318   12.4079 C.ar    1  UNL1        0.1662
     16 O          65.1252   93.2287   11.1549 O.2     1  UNL1       -0.4237
     17 N          66.7098   94.6011    9.4964 N.pl3   1  UNL1       -0.2619
     18 C          67.5682   94.0806    8.3819 C.3     1  UNL1        0.1166
     19 C          66.1080   96.7011    8.0901 C.3     1  UNL1        0.0233
     20 C          66.1037   95.9697    9.3997 C.3     1  UNL1        0.0952
     21 C          62.6136   88.0526   15.9381 C.3     1  UNL1        0.0937
     22 C          63.1394   87.0559   16.9281 C.3     1  UNL1        0.0199
     23 C          62.7126   87.1286   18.3643 C.3     1  UNL1        0.0018
     24 C          64.0919   85.9865   16.4820 C.3     1  UNL1        0.0018
     25 C          62.7980   86.5644   12.2520 C.3     1  UNL1        0.1075
     26 N          63.5789   85.3647   12.7003 N.am    1  UNL1       -0.2695
     27 C          63.0416   84.4841   13.7892 C.2     1  UNL1        0.4020
     28 O          61.7234   84.8032   14.4299 O.2     1  UNL1       -0.2264
     29 H          64.4441   85.1552   12.2798 H       1  UNL1        0.1528
     30 O          63.8226   83.2844   14.2376 O.3     1  UNL1       -0.4296
     31 C          63.2287   81.9128   14.1111 C.3     1  UNL1        0.2382
     32 C          63.1286   81.2602   12.7643 C.ar    1  UNL1        0.0405
     33 C          63.4818   82.0330   11.5282 C.ar    1  UNL1        0.0025
     34 C          63.3817   81.3803   10.1814 C.ar    1  UNL1        0.0205
     35 C          62.9283   79.9547   10.0707 C.ar    1  UNL1        0.0989
     36 N          62.5751   79.1819   11.3068 N.ar    1  UNL1       -0.2425
     37 C          62.6752   79.8346   12.6536 C.ar    1  UNL1        0.0982
     38 C          61.5522   86.3862   11.4358 C.3     1  UNL1        0.0485
     39 C          61.6514   85.9934    9.9916 C.ar    1  UNL1       -0.0204
     40 C          62.8805   85.2975    9.4864 C.ar    1  UNL1       -0.0042
     41 C          62.9797   84.9047    8.0421 C.ar    1  UNL1       -0.0003
     42 C          61.8500   85.2077    7.1031 C.ar    1  UNL1       -0.0000
     43 C          60.6210   85.9036    7.6083 C.ar    1  UNL1       -0.0003
     44 C          60.5217   86.2964    9.0526 C.ar    1  UNL1       -0.0042
@<TRIPOS>BOND
     1    19    20    1
     2    20    17    1
     3    17    18    1
     4    17     8    1
     5     8     9   ar
     6     9    10   ar
     7    10    11   ar
     8    11    12   ar
     9    12    13   ar
    10    13     5    1
    11     5     6    2
    12     5     7   am
    13     7    21    1
    14    21    22    1
    15    22    23    1
    16    22    24    1
    17     7     4    1
    18     4     1    1
    19     1     2    1
    20     1    25    1
    21    25    38    1
    22    38    39    1
    23    39    40   ar
    24    40    41   ar
    25    41    42   ar
    26    42    43   ar
    27    43    44   ar
    28    25    26    1
    29    26    27   am
    30    27    28    2
    31    27    30    1
    32    30    31    1
    33    31    32    1
    34    32    33   ar
    35    33    34   ar
    36    34    35   ar
    37    35    36   ar
    38    36    37   ar
    39    13    14   ar
    40    14    15   ar
    41    15    16   ar
    42    16     8   ar
    43    15    10   ar
    44    44    39   ar
    45    37    32   ar
    46     2     3    1
    47    26    29    1
@<TRIPOS>MOLECULE
*****
 44 47 0 0 0
SMALL
GASTEIGER

@<TRIPOS>ATOM
      1 C          62.6734   89.7034   13.0540 C.3     1  UNL1        0.1484
      2 O          61.4080   89.7961   13.8540 O.3     1  UNL1       -0.3810
      3 H          60.6754   89.4140   13.3459 H       1  UNL1        0.2105
      4 C          62.6530   89.0858   11.6872 C.3     1  UNL1        0.1245
      5 C          60.9167   87.9391   10.1315 C.2     1  UNL1        0.2492
      6 O          59.6748   88.0132    9.2935 O.2     1  UNL1       -0.2699
      7 N          61.4112   89.1599   10.8491 N.am    1  UNL1       -0.2735
      8 C          63.3397   82.4456   12.3012 C.ar    1  UNL1        0.2924
      9 N          63.7810   82.7517   10.9007 N.ar    1  UNL1       -0.1946
     10 C          63.1586   84.0541   10.4927 C.ar    1  UNL1        0.1202
     11 C          63.2373   84.8502    9.2239 C.ar    1  UNL1        0.0225
     12 C          62.4900   86.1452    9.1035 C.ar    1  UNL1        0.0063
     13 C          61.6640   86.6440   10.2520 C.ar    1  UNL1        0.0567
     14 C          61.5853   85.8479   11.5208 C.ar    1  UNL1        0.0437
     15 C          62.3326   84.5529   11.6412 C.ar    1  UNL1        0.1662
     16 O          62.4446   83.5588   12.7589 O.2     1  UNL1       -0.4237
     17 N          63.7258   81.2383   13.1033 N.pl3   1  UNL1       -0.2619
     18 C          65.1146   81.1185   13.6572 C.3     1  UNL1        0.1166
     19 C          61.3462   80.4964   13.8362 C.3     1  UNL1        0.0233
     20 C          62.7230   80.1507   13.3515 C.3     1  UNL1        0.0952
     21 C          60.6639   90.4550   10.7287 C.3     1  UNL1        0.0937
     22 C          59.3811   90.6533   11.4804 C.3     1  UNL1        0.0199
     23 C          58.7649   89.5080   12.2278 C.3     1  UNL1        0.0018
     24 C          58.7144   91.9971   11.4848 C.3     1  UNL1        0.0018
     25 C          63.9592   90.2282   13.6208 C.3     1  UNL1        0.1075
     26 N          64.8046   91.1702   12.8157 N.am    1  UNL1       -0.2695
     27 C          65.5019   92.3146   13.4895 C.2     1  UNL1        0.4020
     28 O          65.3540   92.5170   14.9684 O.2     1  UNL1       -0.2264
     29 H          64.9017   91.0373   11.8450 H       1  UNL1        0.1528
     30 O          66.3472   93.2566   12.6844 O.3     1  UNL1       -0.4296
     31 C          66.4376   93.0974   11.1956 C.3     1  UNL1        0.2382
     32 C          66.6910   94.2941   10.3275 C.ar    1  UNL1        0.0405
     33 C          66.2755   95.6587   10.7913 C.ar    1  UNL1        0.0025
     34 C          66.5290   96.8554    9.9231 C.ar    1  UNL1        0.0205
     35 C          67.1978   96.6874    8.5911 C.ar    1  UNL1        0.0989
     36 N          67.6133   95.3228    8.1272 N.ar    1  UNL1       -0.2425
     37 C          67.3599   94.1261    8.9953 C.ar    1  UNL1        0.0982
     38 C          64.3997   89.8110   14.9926 C.3     1  UNL1        0.0485
     39 C          64.0105   88.4651   15.5284 C.ar    1  UNL1       -0.0204
     40 C          64.4687   87.2189   14.8306 C.ar    1  UNL1       -0.0042
     41 C          64.0794   85.8730   15.3664 C.ar    1  UNL1       -0.0003
     42 C          63.2320   85.7734   16.6000 C.ar    1  UNL1       -0.0000
     43 C          62.7739   87.0196   17.2979 C.ar    1  UNL1       -0.0003
     44 C          63.1631   88.3654   16.7621 C.ar    1  UNL1       -0.0042
@<TRIPOS>BOND
     1    19    20    1
     2    20    17    1
     3    17    18    1
     4    17     8    1
     5     8     9   ar
     6     9    10   ar
     7    10    11   ar
     8    11    12   ar
     9    12    13   ar
    10    13     5    1
    11     5     6    2
    12     5     7   am
    13     7    21    1
    14    21    22    1
    15    22    23    1
    16    22    24    1
    17     7     4    1
    18     4     1    1
    19     1     2    1
    20     1    25    1
    21    25    38    1
    22    38    39    1
    23    39    40   ar
    24    40    41   ar
    25    41    42   ar
    26    42    43   ar
    27    43    44   ar
    28    25    26    1
    29    26    27   am
    30    27    28    2
    31    27    30    1
    32    30    31    1
    33    31    32    1
    34    32    33   ar
    35    33    34   ar
    36    34    35   ar
    37    35    36   ar
    38    36    37   ar
    39    13    14   ar
    40    14    15   ar
    41    15    16   ar
    42    16     8   ar
    43    15    10   ar
    44    44    39   ar
    45    37    32   ar
    46     2     3    1
    47    26    29    1
@<TRIPOS>MOLECULE
*****
 44 47 0 0 0
SMALL
GASTEIGER

@<TRIPOS>ATOM
      1 C          62.9597   85.6217   12.2737 C.3     1  UNL1        0.1484
      2 O          62.0423   84.5960   11.6768 O.3     1  UNL1       -0.3810
      3 H          61.4934   85.0118   10.9936 H       1  UNL1        0.2105
      4 C          62.9196   87.0392   11.7846 C.3     1  UNL1        0.1245
      5 C          61.7730   88.8996   10.3796 C.2     1  UNL1        0.2492
      6 O          60.7267   89.3227    9.3915 O.2     1  UNL1       -0.2699
      7 N          61.8733   87.4623   10.7966 N.am    1  UNL1       -0.2735
      8 C          65.6915   93.8853   11.1183 C.ar    1  UNL1        0.2924
      9 N          65.5463   93.0807   12.3759 N.ar    1  UNL1       -0.1946
     10 C          64.6112   91.9425   12.0928 C.ar    1  UNL1        0.1202
     11 C          64.0979   90.8271   12.9543 C.ar    1  UNL1        0.0225
     12 C          63.1519   89.8129   12.3833 C.ar    1  UNL1        0.0063
     13 C          62.7191   89.9140   10.9506 C.ar    1  UNL1        0.0567
     14 C          63.2324   91.0294   10.0890 C.ar    1  UNL1        0.0437
     15 C          64.1785   92.0436   10.6601 C.ar    1  UNL1        0.1662
     16 O          64.8461   93.2443   10.0579 O.2     1  UNL1       -0.4237
     17 N          66.5341   95.1149   10.9506 N.pl3   1  UNL1       -0.2619
     18 C          66.3693   96.2711   11.8918 C.3     1  UNL1        0.1166
     19 C          68.0733   93.9276    9.2269 C.3     1  UNL1        0.0233
     20 C          67.5414   95.1883    9.8416 C.3     1  UNL1        0.0952
     21 C          60.9271   86.4479   10.2255 C.3     1  UNL1        0.0937
     22 C          61.0155   86.0725    8.7759 C.3     1  UNL1        0.0199
     23 C          62.2909   85.5084    8.2236 C.3     1  UNL1        0.0018
     24 C          59.8283   86.2613    7.8786 C.3     1  UNL1        0.0018
     25 C          63.9173   85.2299   13.3598 C.3     1  UNL1        0.1075
     26 N          64.1922   83.7803   13.6303 N.am    1  UNL1       -0.2695
     27 C          63.1579   82.9355   14.3133 C.2     1  UNL1        0.4020
     28 O          61.8487   83.5402   14.7258 O.2     1  UNL1       -0.2264
     29 H          65.0515   83.3834   13.3596 H       1  UNL1        0.1528
     30 O          63.4329   81.4859   14.5838 O.3     1  UNL1       -0.4296
     31 C          62.5735   80.4294   13.9550 C.3     1  UNL1        0.2382
     32 C          62.7024   80.1315   12.4906 C.ar    1  UNL1        0.0405
     33 C          62.5224   78.7282   11.9921 C.ar    1  UNL1        0.0025
     34 C          62.6512   78.4303   10.5276 C.ar    1  UNL1        0.0205
     35 C          62.9600   79.5356    9.5617 C.ar    1  UNL1        0.0989
     36 N          63.1400   80.9388   10.0602 N.ar    1  UNL1       -0.2425
     37 C          63.0112   81.2368   11.5246 C.ar    1  UNL1        0.0982
     38 C          64.5999   86.2877   14.1754 C.3     1  UNL1        0.0485
     39 C          63.9576   86.7973   15.4315 C.ar    1  UNL1       -0.0204
     40 C          63.7590   88.2710   15.6276 C.ar    1  UNL1       -0.0042
     41 C          63.1167   88.7806   16.8837 C.ar    1  UNL1       -0.0003
     42 C          62.6730   87.8165   17.9437 C.ar    1  UNL1       -0.0000
     43 C          62.8716   86.3427   17.7475 C.ar    1  UNL1       -0.0003
     44 C          63.5139   85.8331   16.4914 C.ar    1  UNL1       -0.0042
@<TRIPOS>BOND
     1    19    20    1
     2    20    17    1
     3    17    18    1
     4    17     8    1
     5     8     9   ar
     6     9    10   ar
     7    10    11   ar
     8    11    12   ar
     9    12    13   ar
    10    13     5    1
    11     5     6    2
    12     5     7   am
    13     7    21    1
    14    21    22    1
    15    22    23    1
    16    22    24    1
    17     7     4    1
    18     4     1    1
    19     1     2    1
    20     1    25    1
    21    25    38    1
    22    38    39    1
    23    39    40   ar
    24    40    41   ar
    25    41    42   ar
    26    42    43   ar
    27    43    44   ar
    28    25    26    1
    29    26    27   am
    30    27    28    2
    31    27    30    1
    32    30    31    1
    33    31    32    1
    34    32    33   ar
    35    33    34   ar
    36    34    35   ar
    37    35    36   ar
    38    36    37   ar
    39    13    14   ar
    40    14    15   ar
    41    15    16   ar
    42    16     8   ar
    43    15    10   ar
    44    44    39   ar
    45    37    32   ar
    46     2     3    1
    47    26    29    1
@<TRIPOS>MOLECULE
*****
 44 47 0 0 0
SMALL
GASTEIGER

@<TRIPOS>ATOM
      1 C          63.0763   89.7817   12.8451 C.3     1  UNL1        0.1484
      2 O          62.9037   91.2389   12.5341 O.3     1  UNL1       -0.3810
      3 H          62.1111   91.3614   11.9884 H       1  UNL1        0.2105
      4 C          62.0896   88.7809   12.3207 C.3     1  UNL1        0.1245
      5 C          61.1408   88.0713   10.0086 C.2     1  UNL1        0.2492
      6 O          60.3332   88.3849    8.7840 O.2     1  UNL1       -0.2699
      7 N          61.2821   89.0945   11.0962 N.am    1  UNL1       -0.2735
      8 C          63.2180   82.4644   12.2459 C.ar    1  UNL1        0.2924
      9 N          63.6802   82.7271   10.8432 N.ar    1  UNL1       -0.1946
     10 C          63.1396   84.0605   10.4191 C.ar    1  UNL1        0.1202
     11 C          63.2696   84.8360    9.1417 C.ar    1  UNL1        0.0225
     12 C          62.6033   86.1729    9.0049 C.ar    1  UNL1        0.0063
     13 C          61.8071   86.7343   10.1454 C.ar    1  UNL1        0.0567
     14 C          61.6771   85.9588   11.4228 C.ar    1  UNL1        0.0437
     15 C          62.3434   84.6219   11.5596 C.ar    1  UNL1        0.1662
     16 O          62.3918   83.6355   12.6886 O.2     1  UNL1       -0.4237
     17 N          63.5276   81.2448   13.0624 N.pl3   1  UNL1       -0.2619
     18 C          64.8924   81.0685   13.6593 C.3     1  UNL1        0.1166
     19 C          61.1808   80.5701   13.9494 C.3     1  UNL1        0.0233
     20 C          62.4725   80.2015   13.2819 C.3     1  UNL1        0.0952
     21 C          60.6158   90.4315   10.9593 C.3     1  UNL1        0.0937
     22 C          59.2908   90.6799   11.6170 C.3     1  UNL1        0.0199
     23 C          58.6548   92.0359   11.5341 C.3     1  UNL1        0.0018
     24 C          58.6017   89.5723   12.3577 C.3     1  UNL1        0.0018
     25 C          64.2356   89.3253   13.6804 C.3     1  UNL1        0.1075
     26 N          65.2624   90.3159   14.1434 N.am    1  UNL1       -0.2695
     27 C          64.8807   91.3932   15.1148 C.2     1  UNL1        0.4020
     28 O          63.4722   91.4800   15.6233 O.2     1  UNL1       -0.2264
     29 H          66.1869   90.2590   13.8097 H       1  UNL1        0.1528
     30 O          65.9076   92.3839   15.5778 O.3     1  UNL1       -0.4296
     31 C          66.4085   93.4397   14.6375 C.3     1  UNL1        0.2382
     32 C          66.7747   93.0770   13.2289 C.ar    1  UNL1        0.0405
     33 C          65.9484   93.5850   12.0847 C.ar    1  UNL1        0.0025
     34 C          66.3146   93.2223   10.6760 C.ar    1  UNL1        0.0205
     35 C          67.5070   92.3515   10.4115 C.ar    1  UNL1        0.0989
     36 N          68.3332   91.8435   11.5558 N.ar    1  UNL1       -0.2425
     37 C          67.9671   92.2062   12.9644 C.ar    1  UNL1        0.0982
     38 C          64.3680   87.8783   14.0528 C.3     1  UNL1        0.0485
     39 C          63.8163   87.3862   15.3580 C.ar    1  UNL1       -0.0204
     40 C          63.3176   88.3659   16.3785 C.ar    1  UNL1       -0.0042
     41 C          62.7660   87.8738   17.6837 C.ar    1  UNL1       -0.0003
     42 C          62.7129   86.4020   17.9683 C.ar    1  UNL1       -0.0000
     43 C          63.2115   85.4224   16.9478 C.ar    1  UNL1       -0.0003
     44 C          63.7632   85.9145   15.6426 C.ar    1  UNL1       -0.0042
@<TRIPOS>BOND
     1    19    20    1
     2    20    17    1
     3    17    18    1
     4    17     8    1
     5     8     9   ar
     6     9    10   ar
     7    10    11   ar
     8    11    12   ar
     9    12    13   ar
    10    13     5    1
    11     5     6    2
    12     5     7   am
    13     7    21    1
    14    21    22    1
    15    22    23    1
    16    22    24    1
    17     7     4    1
    18     4     1    1
    19     1     2    1
    20     1    25    1
    21    25    38    1
    22    38    39    1
    23    39    40   ar
    24    40    41   ar
    25    41    42   ar
    26    42    43   ar
    27    43    44   ar
    28    25    26    1
    29    26    27   am
    30    27    28    2
    31    27    30    1
    32    30    31    1
    33    31    32    1
    34    32    33   ar
    35    33    34   ar
    36    34    35   ar
    37    35    36   ar
    38    36    37   ar
    39    13    14   ar
    40    14    15   ar
    41    15    16   ar
    42    16     8   ar
    43    15    10   ar
    44    44    39   ar
    45    37    32   ar
    46     2     3    1
    47    26    29    1
