@<TRIPOS>MOLECULE
*****
 35 39 0 0 0
SMALL
GASTEIGER

@<TRIPOS>ATOM
      1 N          63.8788   86.4759   13.7635 N.am    1  UNL1       -0.2577
      2 C          63.6534   84.9965   13.6607 C.2     1  UNL1        0.3117
      3 O          64.1758   84.0823   14.7290 O.2     1  UNL1       -0.2520
      4 N          62.9055   84.4314   12.4897 N.am    1  UNL1       -0.2347
      5 C          62.3831   85.3456   11.4215 C.3     1  UNL1        0.1279
      6 C          62.6085   86.8251   11.5242 C.2     1  UNL1        0.0450
      7 C          62.0861   87.7393   10.4560 C.2     1  UNL1        0.2310
      8 N          62.3115   89.2187   10.5587 N.2     1  UNL1       -0.0313
      9 C          63.0594   89.7838   11.7297 C.2     1  UNL1        0.3731
     10 N          63.4324   91.1890   12.0990 N.2     1  UNL1       -0.0377
     11 C          64.1853   91.1431   13.3955 C.2     1  UNL1        0.1871
     12 C          64.2777   89.7097   13.8275 C.2     1  UNL1        0.0488
     13 C          63.5818   88.8696   12.7980 C.2     1  UNL1        0.0915
     14 C          63.3564   87.3902   12.6952 C.3     1  UNL1        0.1309
     15 C          62.6800   82.9519   12.3870 C.ar    1  UNL1        0.1167
     16 C          61.9209   82.2326   13.4622 C.ar    1  UNL1        0.1898
     17 F          61.3871   82.9927   14.6401 F       1  UNL1       -0.1996
     18 C          61.6954   80.7532   13.3596 C.ar    1  UNL1        0.1704
     19 C          62.2291   79.9931   12.1817 C.ar    1  UNL1        0.0785
     20 C          62.9883   80.7125   11.1064 C.ar    1  UNL1        0.1704
     21 C          63.2138   82.1919   11.2091 C.ar    1  UNL1        0.1898
     22 F          63.9730   82.9113   10.1338 F       1  UNL1       -0.1996
     23 O          60.9362   80.0339   14.4348 O.3     1  UNL1       -0.4690
     24 C          59.4394   79.9571   14.3728 C.3     1  UNL1        0.2526
     25 O          63.5221   79.9525    9.9285 O.3     1  UNL1       -0.4690
     26 C          62.8960   78.6486    9.5310 C.3     1  UNL1        0.2526
     27 C          63.9189   87.2693   16.2371 C.3     1  UNL1        0.0233
     28 C          64.6267   87.0410   14.9346 C.3     1  UNL1        0.0956
     29 C          64.7473   92.3235   14.1310 C.3     1  UNL1        0.1471
     30 N          66.2297   92.4529   14.3204 N.3     1  UNL1       -0.2614
     31 C          66.7747   93.0654   15.5765 C.3     1  UNL1        0.1050
     32 C          68.2570   93.1947   15.7659 C.3     1  UNL1        0.1595
     33 O          69.1944   92.7115   14.6993 O.3     1  UNL1       -0.3508
     34 C          68.6494   92.0989   13.4432 C.3     1  UNL1        0.1595
     35 C          67.1670   91.9696   13.2537 C.3     1  UNL1        0.1050
@<TRIPOS>BOND
     1    27    28    1
     2    28     1    1
     3     1     2   am
     4     2     3    2
     5     2     4   am
     6     4    15    1
     7    15    16   ar
     8    16    17    1
     9    16    18   ar
    10    18    23    1
    11    23    24    1
    12    18    19   ar
    13    19    20   ar
    14    20    25    1
    15    25    26    1
    16    20    21   ar
    17    21    22    1
    18     4     5    1
    19     5     6    1
    20     6     7    2
    21     7     8    1
    22     8     9    2
    23     9    10    1
    24    10    11    2
    25    11    29    1
    26    29    30    1
    27    30    31    1
    28    31    32    1
    29    32    33    1
    30    33    34    1
    31    34    35    1
    32    11    12    1
    33    12    13    2
    34    13    14    1
    35    14     1    1
    36    21    15   ar
    37    14     6    1
    38    13     9    1
    39    35    30    1
@<TRIPOS>MOLECULE
*****
 35 39 0 0 0
SMALL
GASTEIGER

@<TRIPOS>ATOM
      1 N          63.8741   86.4853   13.7648 N.am    1  UNL1       -0.2577
      2 C          63.6480   85.0061   13.6620 C.2     1  UNL1        0.3117
      3 O          64.1672   84.0920   14.7321 O.2     1  UNL1       -0.2520
      4 N          62.9027   84.4409   12.4894 N.am    1  UNL1       -0.2347
      5 C          62.3836   85.3550   11.4195 C.3     1  UNL1        0.1279
      6 C          62.6096   86.8344   11.5221 C.2     1  UNL1        0.0450
      7 C          62.0905   87.7484   10.4522 C.2     1  UNL1        0.2310
      8 N          62.3165   89.2278   10.5549 N.2     1  UNL1       -0.0313
      9 C          63.0618   89.7929   11.7276 C.2     1  UNL1        0.3731
     10 N          63.4347   91.1980   12.0972 N.2     1  UNL1       -0.0377
     11 C          64.1843   91.1523   13.3956 C.2     1  UNL1        0.1871
     12 C          64.2748   89.7189   13.8285 C.2     1  UNL1        0.0488
     13 C          63.5810   88.8788   12.7975 C.2     1  UNL1        0.0915
     14 C          63.3549   87.3995   12.6948 C.3     1  UNL1        0.1309
     15 C          62.6767   82.9615   12.3867 C.ar    1  UNL1        0.1167
     16 C          63.2038   82.2026   11.2051 C.ar    1  UNL1        0.1898
     17 F          63.9569   82.9229   10.1263 F       1  UNL1       -0.1996
     18 C          62.9777   80.7233   11.1024 C.ar    1  UNL1        0.1704
     19 C          62.2246   80.0029   12.1813 C.ar    1  UNL1        0.0785
     20 C          61.6976   80.7619   13.3629 C.ar    1  UNL1        0.1704
     21 C          61.9236   82.2413   13.4655 C.ar    1  UNL1        0.1898
     22 F          61.3965   83.0003   14.6472 F       1  UNL1       -0.1996
     23 O          63.5048   79.9643    9.9208 O.3     1  UNL1       -0.4690
     24 C          62.8785   78.6592    9.5277 C.3     1  UNL1        0.2526
     25 O          60.9445   80.0417   14.4417 O.3     1  UNL1       -0.4690
     26 C          59.4476   79.9611   14.3858 C.3     1  UNL1        0.2526
     27 C          63.9063   87.2881   16.2355 C.3     1  UNL1        0.0233
     28 C          64.6194   87.0505   14.9375 C.3     1  UNL1        0.0956
     29 C          64.7452   92.3326   14.1320 C.3     1  UNL1        0.1471
     30 N          66.2270   92.4601   14.3269 N.3     1  UNL1       -0.2614
     31 C          66.7682   93.0665   15.5876 C.3     1  UNL1        0.1050
     32 C          68.2500   93.1940   15.7825 C.3     1  UNL1        0.1595
     33 O          69.1906   92.7150   14.7167 O.3     1  UNL1       -0.3508
     34 C          68.6493   92.1086   13.4560 C.3     1  UNL1        0.1595
     35 C          67.1675   91.9812   13.2611 C.3     1  UNL1        0.1050
@<TRIPOS>BOND
     1    27    28    1
     2    28     1    1
     3     1     2   am
     4     2     3    2
     5     2     4   am
     6     4    15    1
     7    15    16   ar
     8    16    17    1
     9    16    18   ar
    10    18    23    1
    11    23    24    1
    12    18    19   ar
    13    19    20   ar
    14    20    25    1
    15    25    26    1
    16    20    21   ar
    17    21    22    1
    18     4     5    1
    19     5     6    1
    20     6     7    2
    21     7     8    1
    22     8     9    2
    23     9    10    1
    24    10    11    2
    25    11    29    1
    26    29    30    1
    27    30    31    1
    28    31    32    1
    29    32    33    1
    30    33    34    1
    31    34    35    1
    32    11    12    1
    33    12    13    2
    34    13    14    1
    35    14     1    1
    36    21    15   ar
    37    14     6    1
    38    13     9    1
    39    35    30    1
@<TRIPOS>MOLECULE
*****
 35 39 0 0 0
SMALL
GASTEIGER

@<TRIPOS>ATOM
      1 N          62.8553   86.9702   11.4451 N.am    1  UNL1       -0.2577
      2 C          62.5538   85.5010   11.4203 C.2     1  UNL1        0.3117
      3 O          61.8931   84.8912   10.2196 O.2     1  UNL1       -0.2520
      4 N          62.9132   84.6417   12.5961 N.am    1  UNL1       -0.2347
      5 C          63.5739   85.2516   13.7966 C.3     1  UNL1        0.1279
      6 C          63.8754   86.7208   13.8215 C.2     1  UNL1        0.0450
      7 C          64.5361   87.3307   15.0220 C.2     1  UNL1        0.2310
      8 N          64.8376   88.7999   15.0469 N.2     1  UNL1       -0.0313
      9 C          64.4783   89.6592   13.8711 C.2     1  UNL1        0.3731
     10 N          64.6507   91.1262   13.6101 N.2     1  UNL1       -0.0377
     11 C          64.0965   91.4229   12.2482 C.2     1  UNL1        0.1871
     12 C          63.5816   90.1394   11.6675 C.2     1  UNL1        0.0488
     13 C          63.8175   89.0493   12.6705 C.2     1  UNL1        0.0915
     14 C          63.5161   87.5801   12.6457 C.3     1  UNL1        0.1309
     15 C          62.6117   83.1725   12.5713 C.ar    1  UNL1        0.1167
     16 C          63.1441   82.3164   11.4606 C.ar    1  UNL1        0.1898
     17 F          63.9779   82.9294   10.3749 F       1  UNL1       -0.1996
     18 C          62.8426   80.8472   11.4357 C.ar    1  UNL1        0.1704
     19 C          62.0088   80.2341   12.5214 C.ar    1  UNL1        0.0785
     20 C          61.4763   81.0903   13.6321 C.ar    1  UNL1        0.1704
     21 C          61.7778   82.5595   13.6569 C.ar    1  UNL1        0.1898
     22 F          61.2454   83.4157   14.7677 F       1  UNL1       -0.1996
     23 O          63.3750   79.9911   10.3250 O.3     1  UNL1       -0.4690
     24 C          62.8138   78.6180   10.1015 C.3     1  UNL1        0.2526
     25 O          60.6425   80.4773   14.7179 O.3     1  UNL1       -0.4690
     26 C          59.2498   80.0069   14.4189 C.3     1  UNL1        0.2526
     27 C          61.0599   88.1671    9.9980 C.3     1  UNL1        0.0233
     28 C          62.4960   87.8295   10.2692 C.3     1  UNL1        0.0956
     29 C          64.0631   92.7673   11.5836 C.3     1  UNL1        0.1471
     30 N          65.3128   93.3370   10.9805 N.3     1  UNL1       -0.2614
     31 C          66.4011   92.4210   10.5047 C.3     1  UNL1        0.1050
     32 C          67.6507   92.9908    9.9016 C.3     1  UNL1        0.1595
     33 O          67.8121   94.4766    9.7742 O.3     1  UNL1       -0.3508
     34 C          66.7237   95.3927   10.2500 C.3     1  UNL1        0.1595
     35 C          65.4740   94.8229   10.8531 C.3     1  UNL1        0.1050
@<TRIPOS>BOND
     1    27    28    1
     2    28     1    1
     3     1     2   am
     4     2     3    2
     5     2     4   am
     6     4    15    1
     7    15    16   ar
     8    16    17    1
     9    16    18   ar
    10    18    23    1
    11    23    24    1
    12    18    19   ar
    13    19    20   ar
    14    20    25    1
    15    25    26    1
    16    20    21   ar
    17    21    22    1
    18     4     5    1
    19     5     6    1
    20     6     7    2
    21     7     8    1
    22     8     9    2
    23     9    10    1
    24    10    11    2
    25    11    29    1
    26    29    30    1
    27    30    31    1
    28    31    32    1
    29    32    33    1
    30    33    34    1
    31    34    35    1
    32    11    12    1
    33    12    13    2
    34    13    14    1
    35    14     1    1
    36    21    15   ar
    37    14     6    1
    38    13     9    1
    39    35    30    1
@<TRIPOS>MOLECULE
*****
 35 39 0 0 0
SMALL
GASTEIGER

@<TRIPOS>ATOM
      1 N          62.8602   86.9671   11.4429 N.am    1  UNL1       -0.2577
      2 C          62.5520   85.4993   11.4197 C.2     1  UNL1        0.3117
      3 O          61.9040   84.8881   10.2128 O.2     1  UNL1       -0.2520
      4 N          62.8917   84.6428   12.6033 N.am    1  UNL1       -0.2347
      5 C          63.5396   85.2540   13.8101 C.3     1  UNL1        0.1279
      6 C          63.8478   86.7219   13.8334 C.2     1  UNL1        0.0450
      7 C          64.4957   87.3331   15.0402 C.2     1  UNL1        0.2310
      8 N          64.8040   88.8010   15.0635 N.2     1  UNL1       -0.0313
      9 C          64.4643   89.6575   13.8799 C.2     1  UNL1        0.3731
     10 N          64.6473   91.1226   13.6158 N.2     1  UNL1       -0.0377
     11 C          64.1124   91.4169   12.2456 C.2     1  UNL1        0.1871
     12 C          63.5989   90.1336   11.6630 C.2     1  UNL1        0.0488
     13 C          63.8164   89.0462   12.6731 C.2     1  UNL1        0.0915
     14 C          63.5081   87.5784   12.6498 C.3     1  UNL1        0.1309
     15 C          62.5834   83.1749   12.5800 C.ar    1  UNL1        0.1167
     16 C          61.7422   82.5680   13.6635 C.ar    1  UNL1        0.1898
     17 F          61.2092   83.4289   14.7702 F       1  UNL1       -0.1996
     18 C          61.4339   81.1003   13.6402 C.ar    1  UNL1        0.1704
     19 C          61.9668   80.2394   12.5335 C.ar    1  UNL1        0.0785
     20 C          62.8080   80.8463   11.4500 C.ar    1  UNL1        0.1704
     21 C          63.1163   82.3141   11.4733 C.ar    1  UNL1        0.1898
     22 F          63.9576   82.9211   10.3897 F       1  UNL1       -0.1996
     23 O          60.5926   80.4934   14.7237 O.3     1  UNL1       -0.4690
     24 C          59.2156   79.9881   14.4098 C.3     1  UNL1        0.2526
     25 O          63.3410   79.9855   10.3432 O.3     1  UNL1       -0.4690
     26 C          62.8027   78.5994   10.1456 C.3     1  UNL1        0.2526
     27 C          61.0877   88.1422    9.9505 C.3     1  UNL1        0.0233
     28 C          62.5205   87.8237   10.2593 C.3     1  UNL1        0.0956
     29 C          64.0943   92.7588   11.5757 C.3     1  UNL1        0.1471
     30 N          65.3542   93.3197   10.9857 N.3     1  UNL1       -0.2614
     31 C          65.5334   94.8046   10.8732 C.3     1  UNL1        0.1050
     32 C          66.7933   95.3655   10.2832 C.3     1  UNL1        0.1595
     33 O          67.8740   94.4414    9.8057 O.3     1  UNL1       -0.3508
     34 C          67.6947   92.9563    9.9181 C.3     1  UNL1        0.1595
     35 C          66.4348   92.3954   10.5081 C.3     1  UNL1        0.1050
@<TRIPOS>BOND
     1    27    28    1
     2    28     1    1
     3     1     2   am
     4     2     3    2
     5     2     4   am
     6     4    15    1
     7    15    16   ar
     8    16    17    1
     9    16    18   ar
    10    18    23    1
    11    23    24    1
    12    18    19   ar
    13    19    20   ar
    14    20    25    1
    15    25    26    1
    16    20    21   ar
    17    21    22    1
    18     4     5    1
    19     5     6    1
    20     6     7    2
    21     7     8    1
    22     8     9    2
    23     9    10    1
    24    10    11    2
    25    11    29    1
    26    29    30    1
    27    30    31    1
    28    31    32    1
    29    32    33    1
    30    33    34    1
    31    34    35    1
    32    11    12    1
    33    12    13    2
    34    13    14    1
    35    14     1    1
    36    21    15   ar
    37    14     6    1
    38    13     9    1
    39    35    30    1
