@<TRIPOS>MOLECULE
*****
 26 28 0 0 0
SMALL
GASTEIGER

@<TRIPOS>ATOM
      1 C          62.8414   87.6208   12.0107 C.ar    1  UNL1        0.1345
      2 C          62.2081   87.5727   10.6518 C.ar    1  UNL1        0.0345
      3 C          61.7569   86.2612   10.0807 C.ar    1  UNL1        0.0045
      4 C          61.9389   84.9977   10.8684 C.ar    1  UNL1        0.0224
      5 C          62.5722   85.0458   12.2273 C.ar    1  UNL1        0.1185
      6 N          63.0234   86.3573   12.7984 N.ar    1  UNL1       -0.2274
      7 C          62.7542   83.7824   13.0151 C.ar    1  UNL1        0.1842
      8 N          62.4651   83.6049   14.4762 N.ar    1  UNL1       -0.1271
      9 N          62.7895   82.1874   14.8442 N.ar    1  UNL1       -0.1255
     10 C          63.2792   81.4887   13.6105 C.ar    1  UNL1        0.2026
     11 N          63.2573   82.4745   12.4800 N.ar    1  UNL1       -0.2935
     12 C          63.6668   82.2004   11.0633 C.3     1  UNL1        0.0886
     13 C          63.0923   81.0243   10.3307 C.3     1  UNL1        0.0246
     14 C          64.6508   83.1025   10.3790 C.3     1  UNL1        0.0246
     15 C          64.1499   88.9593   13.8125 C.2     1  UNL1        0.2567
     16 O          64.5559   87.6746   14.4719 O.2     1  UNL1       -0.2696
     17 N          63.2927   88.9324   12.5819 N.am    1  UNL1       -0.2656
     18 H          63.0262   89.7755   12.1490 H       1  UNL1        0.1566
     19 C          64.0642   90.9246   15.6223 C.ar    1  UNL1        0.2478
     20 N          64.7998   92.2167   15.8206 N.ar    1  UNL1       -0.1313
     21 N          65.7915   92.3615   14.7045 N.ar    1  UNL1       -0.2443
     22 C          66.7394   93.5077   14.5105 C.3     1  UNL1        0.1539
     23 C          65.6687   91.1589   13.8163 C.ar    1  UNL1        0.1045
     24 C          64.6012   90.2708   14.3837 C.ar    1  UNL1        0.1268
     25 C          63.0914   88.9911   17.0595 C.3     1  UNL1        0.2543
     26 O          62.9817   90.3815   16.5073 O.3     1  UNL1       -0.4551
@<TRIPOS>BOND
     1    25    26    1
     2    26    19    1
     3    19    20   ar
     4    20    21   ar
     5    21    22    1
     6    21    23   ar
     7    23    24   ar
     8    24    15    1
     9    15    16    2
    10    15    17   am
    11    17     1    1
    12     1     2   ar
    13     2     3   ar
    14     3     4   ar
    15     4     5   ar
    16     5     7    1
    17     7     8   ar
    18     8     9   ar
    19     9    10   ar
    20    10    11   ar
    21    11    12    1
    22    12    13    1
    23    12    14    1
    24     5     6   ar
    25    24    19   ar
    26     6     1   ar
    27    11     7   ar
    28    17    18    1
@<TRIPOS>MOLECULE
*****
 26 28 0 0 0
SMALL
GASTEIGER

@<TRIPOS>ATOM
      1 C          63.0838   88.4044   12.0133 C.ar    1  UNL1        0.1345
      2 C          62.4675   88.9419   10.7559 C.ar    1  UNL1        0.0345
      3 C          62.6463   90.3858   10.3909 C.ar    1  UNL1        0.0045
      4 C          63.4413   91.2921   11.2834 C.ar    1  UNL1        0.0224
      5 C          64.0576   90.7546   12.5408 C.ar    1  UNL1        0.1185
      6 N          63.8788   89.3107   12.9058 N.ar    1  UNL1       -0.2274
      7 C          64.8526   91.6609   13.4333 C.ar    1  UNL1        0.1842
      8 N          64.7646   91.7241   14.9294 N.ar    1  UNL1       -0.1271
      9 N          65.7328   92.7654   15.4071 N.ar    1  UNL1       -0.1255
     10 C          66.4192   93.3458   14.2063 C.ar    1  UNL1        0.2026
     11 N          65.8752   92.6632   12.9864 N.ar    1  UNL1       -0.2935
     12 C          66.2824   92.9351   11.5686 C.3     1  UNL1        0.0886
     13 C          65.5988   94.0170   10.7863 C.3     1  UNL1        0.0246
     14 C          67.3732   92.1249   10.9330 C.3     1  UNL1        0.0246
     15 C          63.5433   86.4167   13.6221 C.2     1  UNL1        0.2567
     16 O          64.3603   87.3169   14.5009 O.2     1  UNL1       -0.2696
     17 N          62.9051   86.9604   12.3783 N.am    1  UNL1       -0.2656
     18 H          62.3688   86.3696   11.8016 H       1  UNL1        0.1566
     19 C          62.6271   84.4508   15.1844 C.ar    1  UNL1        0.2478
     20 N          62.6987   82.9528   15.1562 N.ar    1  UNL1       -0.1313
     21 N          63.4805   82.5489   13.9413 N.ar    1  UNL1       -0.2443
     22 C          63.7954   81.1434   13.5226 C.3     1  UNL1        0.1539
     23 C          63.8920   83.7974   13.2188 C.ar    1  UNL1        0.1045
     24 C          63.3646   84.9728   13.9871 C.ar    1  UNL1        0.1268
     25 C          62.7477   86.0204   17.2512 C.3     1  UNL1        0.2543
     26 O          61.9388   85.2811   16.2269 O.3     1  UNL1       -0.4551
@<TRIPOS>BOND
     1    25    26    1
     2    26    19    1
     3    19    20   ar
     4    20    21   ar
     5    21    22    1
     6    21    23   ar
     7    23    24   ar
     8    24    15    1
     9    15    16    2
    10    15    17   am
    11    17     1    1
    12     1     2   ar
    13     2     3   ar
    14     3     4   ar
    15     4     5   ar
    16     5     7    1
    17     7     8   ar
    18     8     9   ar
    19     9    10   ar
    20    10    11   ar
    21    11    12    1
    22    12    13    1
    23    12    14    1
    24     5     6   ar
    25    24    19   ar
    26     6     1   ar
    27    11     7   ar
    28    17    18    1
@<TRIPOS>MOLECULE
*****
 26 28 0 0 0
SMALL
GASTEIGER

@<TRIPOS>ATOM
      1 C          62.4119   88.3459   11.8146 C.ar    1  UNL1        0.1345
      2 C          61.0849   88.4718   11.1267 C.ar    1  UNL1        0.0345
      3 C          60.4746   87.2801   10.4505 C.ar    1  UNL1        0.0045
      4 C          61.1913   85.9625   10.4622 C.ar    1  UNL1        0.0224
      5 C          62.5183   85.8365   11.1501 C.ar    1  UNL1        0.1185
      6 N          63.1286   87.0282   11.8263 N.ar    1  UNL1       -0.2274
      7 C          63.2349   84.5189   11.1618 C.ar    1  UNL1        0.1842
      8 N          63.5995   83.7028    9.9572 N.ar    1  UNL1       -0.1271
      9 N          64.3028   82.4655   10.4311 N.ar    1  UNL1       -0.1255
     10 C          64.3728   82.5168   11.9286 C.ar    1  UNL1        0.2026
     11 N          63.7129   83.7859   12.3802 N.ar    1  UNL1       -0.2935
     12 C          63.5580   84.2419   13.8008 C.3     1  UNL1        0.0886
     13 C          64.7288   84.8287   14.5320 C.3     1  UNL1        0.0246
     14 C          62.2322   84.1112   14.4902 C.3     1  UNL1        0.0246
     15 C          63.9111   89.3492   13.6844 C.2     1  UNL1        0.2567
     16 O          64.1896   87.9691   14.2017 O.2     1  UNL1       -0.2696
     17 N          63.0222   89.5377   12.4909 N.am    1  UNL1       -0.2656
     18 H          62.8395   90.4435   12.1514 H       1  UNL1        0.1566
     19 C          64.1316   91.0898   15.7010 C.ar    1  UNL1        0.2478
     20 N          64.9980   92.2811   15.9840 N.ar    1  UNL1       -0.1313
     21 N          65.9234   92.4686   14.8184 N.ar    1  UNL1       -0.2443
     22 C          66.9611   93.5429   14.6803 C.3     1  UNL1        0.1539
     23 C          65.6288   91.3931   13.8150 C.ar    1  UNL1        0.1045
     24 C          64.5214   90.5410   14.3606 C.ar    1  UNL1        0.1268
     25 C          63.0841   89.0969   16.9975 C.3     1  UNL1        0.2543
     26 O          63.0629   90.5433   16.6006 O.3     1  UNL1       -0.4551
@<TRIPOS>BOND
     1    25    26    1
     2    26    19    1
     3    19    20   ar
     4    20    21   ar
     5    21    22    1
     6    21    23   ar
     7    23    24   ar
     8    24    15    1
     9    15    16    2
    10    15    17   am
    11    17     1    1
    12     1     2   ar
    13     2     3   ar
    14     3     4   ar
    15     4     5   ar
    16     5     7    1
    17     7     8   ar
    18     8     9   ar
    19     9    10   ar
    20    10    11   ar
    21    11    12    1
    22    12    13    1
    23    12    14    1
    24     5     6   ar
    25    24    19   ar
    26     6     1   ar
    27    11     7   ar
    28    17    18    1
@<TRIPOS>MOLECULE
*****
 26 28 0 0 0
SMALL
GASTEIGER

@<TRIPOS>ATOM
      1 C          62.2363   90.2350   10.8152 C.ar    1  UNL1        0.1345
      2 C          60.7792   90.5895   10.8460 C.ar    1  UNL1        0.0345
      3 C          59.7511   89.5183   11.0593 C.ar    1  UNL1        0.0045
      4 C          60.1801   88.0926   11.2418 C.ar    1  UNL1        0.0224
      5 C          61.6373   87.7381   11.2111 C.ar    1  UNL1        0.1185
      6 N          62.6654   88.8093   10.9977 N.ar    1  UNL1       -0.2274
      7 C          62.0663   86.3124   11.3936 C.ar    1  UNL1        0.1842
      8 N          62.3894   85.6492   12.6996 N.ar    1  UNL1       -0.1271
      9 N          62.7704   84.2265   12.4154 N.ar    1  UNL1       -0.1255
     10 C          62.6827   84.0104   10.9336 C.ar    1  UNL1        0.2026
     11 N          62.2476   85.2996   10.3022 N.ar    1  UNL1       -0.2935
     12 C          62.0317   85.5346    8.8365 C.3     1  UNL1        0.0886
     13 C          63.1244   85.2218    7.8577 C.3     1  UNL1        0.0246
     14 C          60.7228   86.0824    8.3496 C.3     1  UNL1        0.0246
     15 C          64.2605   91.6151   11.6800 C.2     1  UNL1        0.2567
     16 O          64.2284   90.8529   12.9715 O.2     1  UNL1       -0.2696
     17 N          63.2645   91.3062   10.6018 N.am    1  UNL1       -0.2656
     18 H          63.2856   91.8064    9.7542 H       1  UNL1        0.1566
     19 C          66.0236   93.4299   12.5423 C.ar    1  UNL1        0.2478
     20 N          66.9516   94.4051   11.8806 N.ar    1  UNL1       -0.1313
     21 N          66.7903   94.2642   10.3959 N.ar    1  UNL1       -0.2443
     22 C          67.5272   95.0479    9.3507 C.3     1  UNL1        0.1539
     23 C          65.7625   93.2019   10.1401 C.ar    1  UNL1        0.1045
     24 C          65.2887   92.6863   11.4666 C.ar    1  UNL1        0.1268
     25 C          67.0438   93.3656   14.9308 C.3     1  UNL1        0.2543
     26 O          65.8592   93.2328   14.0202 O.3     1  UNL1       -0.4551
@<TRIPOS>BOND
     1    25    26    1
     2    26    19    1
     3    19    20   ar
     4    20    21   ar
     5    21    22    1
     6    21    23   ar
     7    23    24   ar
     8    24    15    1
     9    15    16    2
    10    15    17   am
    11    17     1    1
    12     1     2   ar
    13     2     3   ar
    14     3     4   ar
    15     4     5   ar
    16     5     7    1
    17     7     8   ar
    18     8     9   ar
    19     9    10   ar
    20    10    11   ar
    21    11    12    1
    22    12    13    1
    23    12    14    1
    24     5     6   ar
    25    24    19   ar
    26     6     1   ar
    27    11     7   ar
    28    17    18    1
@<TRIPOS>MOLECULE
*****
 26 28 0 0 0
SMALL
GASTEIGER

@<TRIPOS>ATOM
      1 C          63.5736   87.7488   13.1885 C.ar    1  UNL1        0.1345
      2 C          62.9805   88.2481   11.9044 C.ar    1  UNL1        0.0345
      3 C          62.8632   89.7226   11.6559 C.ar    1  UNL1        0.0045
      4 C          63.3389   90.6980   12.6914 C.ar    1  UNL1        0.0224
      5 C          63.9320   90.1988   13.9755 C.ar    1  UNL1        0.1185
      6 N          64.0493   88.7242   14.2241 N.ar    1  UNL1       -0.2274
      7 C          64.4078   91.1741   15.0110 C.ar    1  UNL1        0.1842
      8 N          63.7547   91.4440   16.3341 N.ar    1  UNL1       -0.1271
      9 N          64.5635   92.4875   17.0461 N.ar    1  UNL1       -0.1255
     10 C          65.7165   92.8626   16.1630 C.ar    1  UNL1        0.2026
     11 N          65.6203   92.0508   14.9053 N.ar    1  UNL1       -0.2935
     12 C          66.5700   92.1061   13.7455 C.3     1  UNL1        0.0886
     13 C          67.9923   91.6629   13.9189 C.3     1  UNL1        0.0246
     14 C          66.0971   92.6048   12.4121 C.3     1  UNL1        0.0246
     15 C          62.7502   85.3222   12.7598 C.2     1  UNL1        0.2567
     16 O          61.6921   85.8448   11.8339 O.2     1  UNL1       -0.2696
     17 N          63.6909   86.2742   13.4372 N.am    1  UNL1       -0.2656
     18 H          64.3853   85.9312   14.0449 H       1  UNL1        0.1566
     19 C          63.2347   83.1994   14.3104 C.ar    1  UNL1        0.2478
     20 N          63.2324   81.7135   14.1054 N.ar    1  UNL1       -0.1313
     21 N          62.8638   81.4433   12.6766 N.ar    1  UNL1       -0.2443
     22 C          62.7420   80.0915   12.0380 C.3     1  UNL1        0.1539
     23 C          62.6383   82.7623   11.9987 C.ar    1  UNL1        0.1045
     24 C          62.8675   83.8476   13.0085 C.ar    1  UNL1        0.1268
     25 C          62.4925   84.7300   16.2742 C.3     1  UNL1        0.2543
     26 O          63.5490   83.9121   15.5923 O.3     1  UNL1       -0.4551
@<TRIPOS>BOND
     1    25    26    1
     2    26    19    1
     3    19    20   ar
     4    20    21   ar
     5    21    22    1
     6    21    23   ar
     7    23    24   ar
     8    24    15    1
     9    15    16    2
    10    15    17   am
    11    17     1    1
    12     1     2   ar
    13     2     3   ar
    14     3     4   ar
    15     4     5   ar
    16     5     7    1
    17     7     8   ar
    18     8     9   ar
    19     9    10   ar
    20    10    11   ar
    21    11    12    1
    22    12    13    1
    23    12    14    1
    24     5     6   ar
    25    24    19   ar
    26     6     1   ar
    27    11     7   ar
    28    17    18    1
@<TRIPOS>MOLECULE
*****
 26 28 0 0 0
SMALL
GASTEIGER

@<TRIPOS>ATOM
      1 C          62.8623   88.2941   11.6981 C.ar    1  UNL1        0.1345
      2 C          62.6040   89.1222   10.4743 C.ar    1  UNL1        0.0345
      3 C          62.8368   90.6035   10.5083 C.ar    1  UNL1        0.0045
      4 C          63.3279   91.2569   11.7661 C.ar    1  UNL1        0.0224
      5 C          63.5862   90.4289   12.9898 C.ar    1  UNL1        0.1185
      6 N          63.3534   88.9475   12.9558 N.ar    1  UNL1       -0.2274
      7 C          64.0773   91.0823   14.2476 C.ar    1  UNL1        0.1842
      8 N          63.4055   91.0316   15.5877 N.ar    1  UNL1       -0.1271
      9 N          64.2394   91.8190   16.5544 N.ar    1  UNL1       -0.1255
     10 C          65.4267   92.3564   15.8117 C.ar    1  UNL1        0.2026
     11 N          65.3264   91.9011   14.3860 N.ar    1  UNL1       -0.2935
     12 C          66.3038   92.2103   13.2910 C.3     1  UNL1        0.0886
     13 C          65.8864   93.0674   12.1330 C.3     1  UNL1        0.0246
     14 C          67.6988   91.6622   13.3539 C.3     1  UNL1        0.0246
     15 C          63.1685   85.9434   12.7613 C.2     1  UNL1        0.2567
     16 O          63.9404   86.5555   13.8924 O.2     1  UNL1       -0.2696
     17 N          62.6294   86.8126   11.6641 N.am    1  UNL1       -0.2656
     18 H          62.1228   86.4109   10.9218 H       1  UNL1        0.1566
     19 C          63.2938   83.5387   11.6006 C.ar    1  UNL1        0.2478
     20 N          62.8833   82.1498   11.9911 N.ar    1  UNL1       -0.1313
     21 N          62.2715   82.2146   13.3592 N.ar    1  UNL1       -0.2443
     22 C          61.7236   81.0542   14.1359 C.3     1  UNL1        0.1539
     23 C          62.3039   83.6437   13.8142 C.ar    1  UNL1        0.1045
     24 C          62.9357   84.4619   12.7273 C.ar    1  UNL1        0.1268
     25 C          63.1281   84.5406    9.2092 C.3     1  UNL1        0.2543
     26 O          63.9475   83.9349   10.3101 O.3     1  UNL1       -0.4551
@<TRIPOS>BOND
     1    25    26    1
     2    26    19    1
     3    19    20   ar
     4    20    21   ar
     5    21    22    1
     6    21    23   ar
     7    23    24   ar
     8    24    15    1
     9    15    16    2
    10    15    17   am
    11    17     1    1
    12     1     2   ar
    13     2     3   ar
    14     3     4   ar
    15     4     5   ar
    16     5     7    1
    17     7     8   ar
    18     8     9   ar
    19     9    10   ar
    20    10    11   ar
    21    11    12    1
    22    12    13    1
    23    12    14    1
    24     5     6   ar
    25    24    19   ar
    26     6     1   ar
    27    11     7   ar
    28    17    18    1
@<TRIPOS>MOLECULE
*****
 26 28 0 0 0
SMALL
GASTEIGER

@<TRIPOS>ATOM
      1 C          63.9182   86.9150   15.0609 C.ar    1  UNL1        0.1345
      2 C          63.2783   86.8979   16.4174 C.ar    1  UNL1        0.0345
      3 C          62.5971   85.6555   16.9096 C.ar    1  UNL1        0.0045
      4 C          62.5557   84.4303   16.0453 C.ar    1  UNL1        0.0224
      5 C          63.1956   84.4474   14.6887 C.ar    1  UNL1        0.1185
      6 N          63.8768   85.6898   14.1966 N.ar    1  UNL1       -0.2274
      7 C          63.1542   83.2222   13.8244 C.ar    1  UNL1        0.1842
      8 N          63.3082   81.8060   14.2944 N.ar    1  UNL1       -0.1271
      9 N          63.2007   80.9066   13.0988 N.ar    1  UNL1       -0.1255
     10 C          62.9803   81.7668   11.8899 C.ar    1  UNL1        0.2026
     11 N          62.9515   83.1979   12.3384 N.ar    1  UNL1       -0.2935
     12 C          62.7546   84.3946   11.4557 C.3     1  UNL1        0.0886
     13 C          61.8599   85.5141   11.8985 C.3     1  UNL1        0.0246
     14 C          63.4526   84.4719   10.1302 C.3     1  UNL1        0.0246
     15 C          63.8939   89.4790   14.6421 C.2     1  UNL1        0.2567
     16 O          62.5070   89.5583   15.2078 O.2     1  UNL1       -0.2696
     17 N          64.5996   88.1575   14.5686 N.am    1  UNL1       -0.2656
     18 H          65.5099   88.1055   14.1973 H       1  UNL1        0.1566
     19 C          64.3757   91.3643   12.8093 C.ar    1  UNL1        0.2478
     20 N          65.2529   92.5793   12.7427 N.ar    1  UNL1       -0.1313
     21 N          65.9946   92.6873   14.0421 N.ar    1  UNL1       -0.2443
     22 C          66.9817   93.7560   14.4076 C.3     1  UNL1        0.1539
     23 C          65.5757   91.5391   14.9118 C.ar    1  UNL1        0.1045
     24 C          64.5753   90.7215   14.1498 C.ar    1  UNL1        0.1268
     25 C          63.4945   91.5189   10.3702 C.3     1  UNL1        0.2543
     26 O          63.4599   90.8776   11.7258 O.3     1  UNL1       -0.4551
@<TRIPOS>BOND
     1    25    26    1
     2    26    19    1
     3    19    20   ar
     4    20    21   ar
     5    21    22    1
     6    21    23   ar
     7    23    24   ar
     8    24    15    1
     9    15    16    2
    10    15    17   am
    11    17     1    1
    12     1     2   ar
    13     2     3   ar
    14     3     4   ar
    15     4     5   ar
    16     5     7    1
    17     7     8   ar
    18     8     9   ar
    19     9    10   ar
    20    10    11   ar
    21    11    12    1
    22    12    13    1
    23    12    14    1
    24     5     6   ar
    25    24    19   ar
    26     6     1   ar
    27    11     7   ar
    28    17    18    1
@<TRIPOS>MOLECULE
*****
 26 28 0 0 0
SMALL
GASTEIGER

@<TRIPOS>ATOM
      1 C          62.5380   89.9970   11.7470 C.ar    1  UNL1        0.1345
      2 C          61.1533   90.4424   11.3808 C.ar    1  UNL1        0.0345
      3 C          60.0931   89.4248   11.0803 C.ar    1  UNL1        0.0045
      4 C          60.4176   87.9618   11.1459 C.ar    1  UNL1        0.0224
      5 C          61.8023   87.5163   11.5120 C.ar    1  UNL1        0.1185
      6 N          62.8625   88.5339   11.8126 N.ar    1  UNL1       -0.2274
      7 C          62.1268   86.0533   11.5776 C.ar    1  UNL1        0.1842
      8 N          62.3567   85.2564   12.8274 N.ar    1  UNL1       -0.1271
      9 N          62.6504   83.8409   12.4271 N.ar    1  UNL1       -0.1255
     10 C          62.6020   83.7630   10.9299 C.ar    1  UNL1        0.2026
     11 N          62.2784   85.1304   10.4049 N.ar    1  UNL1       -0.2935
     12 C          62.1321   85.5084    8.9607 C.3     1  UNL1        0.0886
     13 C          60.8316   86.0616    8.4582 C.3     1  UNL1        0.0246
     14 C          63.2865   85.3333    8.0189 C.3     1  UNL1        0.0246
     15 C          64.3898   90.9201   13.3182 C.2     1  UNL1        0.2567
     16 O          64.1211   89.8080   14.2883 O.2     1  UNL1       -0.2696
     17 N          63.5984   91.0146   12.0476 N.am    1  UNL1       -0.2656
     18 H          63.7748   91.7445   11.4109 H       1  UNL1        0.1566
     19 C          65.9098   93.0301   12.6994 C.ar    1  UNL1        0.2478
     20 N          66.9806   93.8091   13.4040 N.ar    1  UNL1       -0.1313
     21 N          67.1829   93.1981   14.7589 N.ar    1  UNL1       -0.2443
     22 C          68.1595   93.6622   15.7985 C.3     1  UNL1        0.1539
     23 C          66.2369   92.0415   14.8917 C.ar    1  UNL1        0.1045
     24 C          65.4502   91.9377   13.6188 C.ar    1  UNL1        0.1268
     25 C          66.3479   93.5480   10.1914 C.3     1  UNL1        0.2543
     26 O          65.3898   93.2967   11.3179 O.3     1  UNL1       -0.4551
@<TRIPOS>BOND
     1    25    26    1
     2    26    19    1
     3    19    20   ar
     4    20    21   ar
     5    21    22    1
     6    21    23   ar
     7    23    24   ar
     8    24    15    1
     9    15    16    2
    10    15    17   am
    11    17     1    1
    12     1     2   ar
    13     2     3   ar
    14     3     4   ar
    15     4     5   ar
    16     5     7    1
    17     7     8   ar
    18     8     9   ar
    19     9    10   ar
    20    10    11   ar
    21    11    12    1
    22    12    13    1
    23    12    14    1
    24     5     6   ar
    25    24    19   ar
    26     6     1   ar
    27    11     7   ar
    28    17    18    1
@<TRIPOS>MOLECULE
*****
 26 28 0 0 0
SMALL
GASTEIGER

@<TRIPOS>ATOM
      1 C          64.0401   87.6167   15.2234 C.ar    1  UNL1        0.1345
      2 C          63.2723   87.7603   16.5040 C.ar    1  UNL1        0.0345
      3 C          62.5703   86.5736   17.0946 C.ar    1  UNL1        0.0045
      4 C          62.6360   85.2433   16.4047 C.ar    1  UNL1        0.0224
      5 C          63.4038   85.0997   15.1242 C.ar    1  UNL1        0.1185
      6 N          64.1058   86.2864   14.5335 N.ar    1  UNL1       -0.2274
      7 C          63.4695   83.7694   14.4343 C.ar    1  UNL1        0.1842
      8 N          63.7978   82.4562   15.0806 N.ar    1  UNL1       -0.1271
      9 N          63.7497   81.3939   14.0227 N.ar    1  UNL1       -0.1255
     10 C          63.3916   82.0505   12.7225 C.ar    1  UNL1        0.2026
     11 N          63.2185   83.5186   12.9768 N.ar    1  UNL1       -0.2935
     12 C          62.8576   84.5542   11.9534 C.3     1  UNL1        0.0886
     13 C          63.3975   84.4496   10.5579 C.3     1  UNL1        0.0246
     14 C          61.9567   85.6944   12.3255 C.3     1  UNL1        0.0246
     15 C          63.9562   89.8562   13.9090 C.2     1  UNL1        0.2567
     16 O          62.4681   89.7223   13.7760 O.2     1  UNL1       -0.2696
     17 N          64.7421   88.8034   14.6327 N.am    1  UNL1       -0.2656
     18 H          65.7188   88.8912   14.7200 H       1  UNL1        0.1566
     19 C          65.6936   91.8854   14.0025 C.ar    1  UNL1        0.2478
     20 N          66.1234   92.9586   13.0467 N.ar    1  UNL1       -0.1313
     21 N          65.3537   92.7793   11.7718 N.ar    1  UNL1       -0.2443
     22 C          65.4692   93.6340   10.5445 C.3     1  UNL1        0.1539
     23 C          64.4481   91.5953   11.9396 C.ar    1  UNL1        0.1045
     24 C          64.6582   91.0429   13.3183 C.ar    1  UNL1        0.1268
     25 C          67.0285   92.7613   16.0521 C.3     1  UNL1        0.2543
     26 O          66.2087   91.6891   15.3975 O.3     1  UNL1       -0.4551
@<TRIPOS>BOND
     1    25    26    1
     2    26    19    1
     3    19    20   ar
     4    20    21   ar
     5    21    22    1
     6    21    23   ar
     7    23    24   ar
     8    24    15    1
     9    15    16    2
    10    15    17   am
    11    17     1    1
    12     1     2   ar
    13     2     3   ar
    14     3     4   ar
    15     4     5   ar
    16     5     7    1
    17     7     8   ar
    18     8     9   ar
    19     9    10   ar
    20    10    11   ar
    21    11    12    1
    22    12    13    1
    23    12    14    1
    24     5     6   ar
    25    24    19   ar
    26     6     1   ar
    27    11     7   ar
    28    17    18    1
