@<TRIPOS>MOLECULE
*****
 29 33 0 0 0
SMALL
GASTEIGER

@<TRIPOS>ATOM
      1 C          63.5403   85.2185   12.9590 C.ar    1  UNL1        0.0030
      2 C          64.2236   85.4225   14.2786 C.ar    1  UNL1        0.0017
      3 C          64.4647   86.8112   14.7915 C.ar    1  UNL1        0.0206
      4 C          64.0225   87.9960   13.9848 C.ar    1  UNL1        0.0976
      5 N          64.2637   89.3848   14.4978 N.ar    1  UNL1       -0.2391
      6 C          63.8214   90.5696   13.6911 C.ar    1  UNL1        0.1380
      7 C          63.1380   90.3656   12.3714 C.ar    1  UNL1        0.1897
      8 N          62.5945   91.3333   11.3625 N.ar    1  UNL1       -0.1268
      9 N          62.0175   90.5425   10.2259 N.ar    1  UNL1       -0.1287
     10 C          62.2044   89.0862   10.5325 C.ar    1  UNL1        0.1661
     11 N          62.8969   88.9768   11.8585 N.ar    1  UNL1       -0.2714
     12 C          63.3392   87.7920   12.6652 C.ar    1  UNL1        0.0844
     13 C          63.0981   86.4032   12.1523 C.ar    1  UNL1        0.0192
     14 C          61.7743   87.9403    9.6653 C.2     1  UNL1        0.0124
     15 C          62.8613   86.9929    9.2521 C.2     1  UNL1       -0.0247
     16 C          62.7565   85.7646    8.3976 C.3     1  UNL1        0.0578
     17 C          61.5388   85.1802    7.7452 C.3     1  UNL1        0.1468
     18 O          60.1251   85.6800    7.7862 O.3     1  UNL1       -0.3531
     19 C          59.5799   86.8874    8.4897 C.3     1  UNL1        0.1469
     20 C          60.3139   87.8933    9.3260 C.3     1  UNL1        0.0612
     21 C          62.3514   81.4357   12.7936 C.ar    1  UNL1        0.0627
     22 C          62.8168   81.0520   11.4201 C.ar    1  UNL1        0.1000
     23 N          63.5234   82.0572   10.5597 N.ar    1  UNL1       -0.2425
     24 C          63.7646   83.4460   11.0727 C.ar    1  UNL1        0.0988
     25 C          63.2991   83.8296   12.4460 C.ar    1  UNL1        0.0191
     26 C          62.5926   82.8245   13.3065 C.ar    1  UNL1        0.0042
     27 F          60.3378   80.7832   14.3002 F       1  UNL1       -0.1932
     28 C          61.6448   80.4305   13.6540 C.3     1  UNL1        0.3425
     29 F          62.2451   79.0728   13.8683 F       1  UNL1       -0.1932
@<TRIPOS>BOND
     1    27    28    1
     2    28    29    1
     3    28    21    1
     4    21    22   ar
     5    22    23   ar
     6    23    24   ar
     7    24    25   ar
     8    25     1    1
     9     1     2   ar
    10     2     3   ar
    11     3     4   ar
    12     4     5   ar
    13     5     6   ar
    14     6     7   ar
    15     7     8   ar
    16     8     9   ar
    17     9    10   ar
    18    10    14    1
    19    14    15    2
    20    15    16    1
    21    16    17    1
    22    17    18    1
    23    18    19    1
    24    19    20    1
    25    10    11   ar
    26    11    12   ar
    27    12    13   ar
    28    25    26   ar
    29    26    21   ar
    30    13     1   ar
    31    12     4   ar
    32    11     7   ar
    33    20    14    1
@<TRIPOS>MOLECULE
*****
 29 33 0 0 0
SMALL
GASTEIGER

@<TRIPOS>ATOM
      1 C          63.4765   85.8914   13.5102 C.ar    1  UNL1        0.0030
      2 C          64.1906   86.2354   14.7837 C.ar    1  UNL1        0.0017
      3 C          64.5769   87.6569   15.0665 C.ar    1  UNL1        0.0206
      4 C          64.2491   88.7344   14.0758 C.ar    1  UNL1        0.0976
      5 N          64.6355   90.1560   14.3586 N.ar    1  UNL1       -0.2391
      6 C          64.3078   91.2336   13.3679 C.ar    1  UNL1        0.1380
      7 C          63.5937   90.8896   12.0944 C.ar    1  UNL1        0.1897
      8 N          63.1411   91.7317   10.9386 N.ar    1  UNL1       -0.1268
      9 N          62.4750   90.8306    9.9414 N.ar    1  UNL1       -0.1287
     10 C          62.5160   89.4316   10.4810 C.ar    1  UNL1        0.1661
     11 N          63.2074   89.4681   11.8116 N.ar    1  UNL1       -0.2714
     12 C          63.5351   88.3905   12.8023 C.ar    1  UNL1        0.0844
     13 C          63.1488   86.9690   12.5195 C.ar    1  UNL1        0.0192
     14 C          61.9627   88.2105    9.8081 C.2     1  UNL1        0.0124
     15 C          62.9695   87.1683    9.4205 C.2     1  UNL1       -0.0247
     16 C          62.7380   85.8514    8.7409 C.3     1  UNL1        0.0578
     17 C          61.4425   85.2512    8.2809 C.3     1  UNL1        0.1468
     18 O          60.0586   85.8199    8.3870 O.3     1  UNL1       -0.3531
     19 C          59.6282   87.1291    8.9793 C.3     1  UNL1        0.1469
     20 C          60.4757   88.1930    9.6117 C.3     1  UNL1        0.0612
     21 C          63.1314   82.3957   11.6633 C.ar    1  UNL1        0.0627
     22 C          62.3175   81.6268   12.6616 C.ar    1  UNL1        0.1000
     23 N          61.8899   82.2794   13.9427 N.ar    1  UNL1       -0.2425
     24 C          62.2763   83.7010   14.2255 C.ar    1  UNL1        0.0988
     25 C          63.0902   84.4698   13.2273 C.ar    1  UNL1        0.0191
     26 C          63.5177   83.8172   11.9462 C.ar    1  UNL1        0.0042
     27 F          64.6175   82.3811    9.5323 F       1  UNL1       -0.1932
     28 C          63.5589   81.7430   10.3822 C.3     1  UNL1        0.3425
     29 F          62.9280   80.4523    9.9511 F       1  UNL1       -0.1932
@<TRIPOS>BOND
     1    27    28    1
     2    28    29    1
     3    28    21    1
     4    21    22   ar
     5    22    23   ar
     6    23    24   ar
     7    24    25   ar
     8    25     1    1
     9     1     2   ar
    10     2     3   ar
    11     3     4   ar
    12     4     5   ar
    13     5     6   ar
    14     6     7   ar
    15     7     8   ar
    16     8     9   ar
    17     9    10   ar
    18    10    14    1
    19    14    15    2
    20    15    16    1
    21    16    17    1
    22    17    18    1
    23    18    19    1
    24    19    20    1
    25    10    11   ar
    26    11    12   ar
    27    12    13   ar
    28    25    26   ar
    29    26    21   ar
    30    13     1   ar
    31    12     4   ar
    32    11     7   ar
    33    20    14    1
@<TRIPOS>MOLECULE
*****
 29 33 0 0 0
SMALL
GASTEIGER

@<TRIPOS>ATOM
      1 C          62.4669   86.5162   10.9368 C.ar    1  UNL1        0.0030
      2 C          62.3786   85.8546    9.5935 C.ar    1  UNL1        0.0017
      3 C          62.6745   84.3904    9.4577 C.ar    1  UNL1        0.0206
      4 C          63.0587   83.5878   10.6652 C.ar    1  UNL1        0.0976
      5 N          63.3547   82.1235   10.5293 N.ar    1  UNL1       -0.2391
      6 C          63.7389   81.3208   11.7368 C.ar    1  UNL1        0.1380
      7 C          63.8272   81.9824   13.0802 C.ar    1  UNL1        0.1897
      8 N          64.1781   81.4524   14.4388 N.ar    1  UNL1       -0.1268
      9 N          64.0990   82.5891   15.4144 N.ar    1  UNL1       -0.1287
     10 C          63.6993   83.8216   14.6586 C.ar    1  UNL1        0.1661
     11 N          63.5313   83.4466   13.2160 N.ar    1  UNL1       -0.2714
     12 C          63.1470   84.2493   12.0085 C.ar    1  UNL1        0.0844
     13 C          62.8511   85.7135   12.1443 C.ar    1  UNL1        0.0192
     14 C          63.5021   85.1890   15.2429 C.2     1  UNL1        0.0124
     15 C          64.3086   86.2873   14.6157 C.2     1  UNL1       -0.0247
     16 C          64.3366   87.7450   14.9678 C.3     1  UNL1        0.0578
     17 C          63.5652   88.4647   16.0340 C.3     1  UNL1        0.1468
     18 O          62.5751   87.9042   17.0115 O.3     1  UNL1       -0.3531
     19 C          62.1119   86.4857   17.1643 C.3     1  UNL1        0.1469
     20 C          62.5245   85.2773   16.3771 C.3     1  UNL1        0.0612
     21 C          62.8019   90.3277   11.9903 C.ar    1  UNL1        0.0627
     22 C          61.5792   90.9089   11.3444 C.ar    1  UNL1        0.1000
     23 N          60.6523   90.0259   10.5626 N.ar    1  UNL1       -0.2425
     24 C          60.9483   88.5616   10.4267 C.ar    1  UNL1        0.0988
     25 C          62.1710   87.9804   11.0726 C.ar    1  UNL1        0.0191
     26 C          63.0978   88.8635   11.8544 C.ar    1  UNL1        0.0042
     27 F          63.7053   91.1817   14.2717 F       1  UNL1       -0.1932
     28 C          63.7287   91.2108   12.7721 C.3     1  UNL1        0.3425
     29 F          64.6789   92.1229   12.0544 F       1  UNL1       -0.1932
@<TRIPOS>BOND
     1    27    28    1
     2    28    29    1
     3    28    21    1
     4    21    22   ar
     5    22    23   ar
     6    23    24   ar
     7    24    25   ar
     8    25     1    1
     9     1     2   ar
    10     2     3   ar
    11     3     4   ar
    12     4     5   ar
    13     5     6   ar
    14     6     7   ar
    15     7     8   ar
    16     8     9   ar
    17     9    10   ar
    18    10    14    1
    19    14    15    2
    20    15    16    1
    21    16    17    1
    22    17    18    1
    23    18    19    1
    24    19    20    1
    25    10    11   ar
    26    11    12   ar
    27    12    13   ar
    28    25    26   ar
    29    26    21   ar
    30    13     1   ar
    31    12     4   ar
    32    11     7   ar
    33    20    14    1
@<TRIPOS>MOLECULE
*****
 29 33 0 0 0
SMALL
GASTEIGER

@<TRIPOS>ATOM
      1 C          62.5187   85.7135   11.6031 C.ar    1  UNL1        0.0030
      2 C          62.2255   85.8745   10.1409 C.ar    1  UNL1        0.0017
      3 C          62.2842   87.2338    9.5094 C.ar    1  UNL1        0.0206
      4 C          62.6361   88.4321   10.3402 C.ar    1  UNL1        0.0976
      5 N          62.6948   89.7915    9.7086 N.ar    1  UNL1       -0.2391
      6 C          63.0467   90.9898   10.5393 C.ar    1  UNL1        0.1380
      7 C          63.3399   90.8288   12.0016 C.ar    1  UNL1        0.1897
      8 N          63.7123   91.8185   13.0655 N.ar    1  UNL1       -0.1268
      9 N          63.8837   91.0709   14.3545 N.ar    1  UNL1       -0.1287
     10 C          63.6173   89.6191   14.0873 C.ar    1  UNL1        0.1661
     11 N          63.2812   89.4695   12.6331 N.ar    1  UNL1       -0.2714
     12 C          62.9293   88.2712   11.8024 C.ar    1  UNL1        0.0844
     13 C          62.8706   86.9119   12.4338 C.ar    1  UNL1        0.0192
     14 C          63.6765   88.5114   15.0969 C.2     1  UNL1        0.0124
     15 C          62.9326   88.7562   16.3762 C.2     1  UNL1       -0.0247
     16 C          62.8003   87.8554   17.5682 C.3     1  UNL1        0.0578
     17 C          63.3792   86.4873   17.7756 C.3     1  UNL1        0.1468
     18 O          64.2335   85.6821   16.8419 O.3     1  UNL1       -0.3531
     19 C          64.7199   86.0460   15.4704 C.3     1  UNL1        0.1469
     20 C          64.4720   87.3052   14.6938 C.3     1  UNL1        0.0612
     21 C          62.6011   81.7684   12.0261 C.ar    1  UNL1        0.0627
     22 C          62.3426   81.6355   13.4977 C.ar    1  UNL1        0.1000
     23 N          62.1428   82.8620   14.3378 N.ar    1  UNL1       -0.2425
     24 C          62.2015   84.2214   13.7062 C.ar    1  UNL1        0.0988
     25 C          62.4600   84.3542   12.2347 C.ar    1  UNL1        0.0191
     26 C          62.6598   83.1277   11.3946 C.ar    1  UNL1        0.0042
     27 F          63.1817   80.6761    9.7413 F       1  UNL1       -0.1932
     28 C          62.8009   80.5418   11.1860 C.3     1  UNL1        0.3425
     29 F          62.6199   79.1811   11.7905 F       1  UNL1       -0.1932
@<TRIPOS>BOND
     1    27    28    1
     2    28    29    1
     3    28    21    1
     4    21    22   ar
     5    22    23   ar
     6    23    24   ar
     7    24    25   ar
     8    25     1    1
     9     1     2   ar
    10     2     3   ar
    11     3     4   ar
    12     4     5   ar
    13     5     6   ar
    14     6     7   ar
    15     7     8   ar
    16     8     9   ar
    17     9    10   ar
    18    10    14    1
    19    14    15    2
    20    15    16    1
    21    16    17    1
    22    17    18    1
    23    18    19    1
    24    19    20    1
    25    10    11   ar
    26    11    12   ar
    27    12    13   ar
    28    25    26   ar
    29    26    21   ar
    30    13     1   ar
    31    12     4   ar
    32    11     7   ar
    33    20    14    1
@<TRIPOS>MOLECULE
*****
 29 33 0 0 0
SMALL
GASTEIGER

@<TRIPOS>ATOM
      1 C          62.4007   86.5448   10.9246 C.ar    1  UNL1        0.0030
      2 C          62.3109   85.8524    9.5971 C.ar    1  UNL1        0.0017
      3 C          62.6534   84.3963    9.4861 C.ar    1  UNL1        0.0206
      4 C          63.0856   83.6326   10.7026 C.ar    1  UNL1        0.0976
      5 N          63.4281   82.1764   10.5915 N.ar    1  UNL1       -0.2391
      6 C          63.8604   81.4127   11.8081 C.ar    1  UNL1        0.1380
      7 C          63.9502   82.1052   13.1357 C.ar    1  UNL1        0.1897
      8 N          64.3427   81.6161   14.4982 N.ar    1  UNL1       -0.1268
      9 N          64.2428   82.7700   15.4514 N.ar    1  UNL1       -0.1287
     10 C          63.7886   83.9722   14.6779 C.ar    1  UNL1        0.1661
     11 N          63.6077   83.5614   13.2467 N.ar    1  UNL1       -0.2714
     12 C          63.1755   84.3250   12.0301 C.ar    1  UNL1        0.0844
     13 C          62.8330   85.7812   12.1412 C.ar    1  UNL1        0.0192
     14 C          63.5560   85.3444   15.2374 C.2     1  UNL1        0.0124
     15 C          64.2975   86.4581   14.5593 C.2     1  UNL1       -0.0247
     16 C          64.2788   87.9238   14.8773 C.3     1  UNL1        0.0578
     17 C          63.5140   88.6380   15.9520 C.3     1  UNL1        0.1468
     18 O          62.5790   88.0627   16.9741 O.3     1  UNL1       -0.3531
     19 C          62.1778   86.6313   17.1740 C.3     1  UNL1        0.1469
     20 C          62.6127   85.4215   16.4010 C.3     1  UNL1        0.0612
     21 C          60.3305   89.8737   11.5436 C.ar    1  UNL1        0.0627
     22 C          61.3733   90.9134   11.2579 C.ar    1  UNL1        0.1000
     23 N          62.7586   90.4969   10.8610 N.ar    1  UNL1       -0.2425
     24 C          63.1011   89.0407   10.7499 C.ar    1  UNL1        0.0988
     25 C          62.0583   88.0011   11.0357 C.ar    1  UNL1        0.0191
     26 C          60.6730   88.4175   11.4326 C.ar    1  UNL1        0.0042
     27 F          58.4690   91.6829   11.6514 F       1  UNL1       -0.1932
     28 C          58.9452   90.2902   11.9405 C.3     1  UNL1        0.3425
     29 F          58.0361   89.3140   12.6264 F       1  UNL1       -0.1932
@<TRIPOS>BOND
     1    27    28    1
     2    28    29    1
     3    28    21    1
     4    21    22   ar
     5    22    23   ar
     6    23    24   ar
     7    24    25   ar
     8    25     1    1
     9     1     2   ar
    10     2     3   ar
    11     3     4   ar
    12     4     5   ar
    13     5     6   ar
    14     6     7   ar
    15     7     8   ar
    16     8     9   ar
    17     9    10   ar
    18    10    14    1
    19    14    15    2
    20    15    16    1
    21    16    17    1
    22    17    18    1
    23    18    19    1
    24    19    20    1
    25    10    11   ar
    26    11    12   ar
    27    12    13   ar
    28    25    26   ar
    29    26    21   ar
    30    13     1   ar
    31    12     4   ar
    32    11     7   ar
    33    20    14    1
@<TRIPOS>MOLECULE
*****
 29 33 0 0 0
SMALL
GASTEIGER

@<TRIPOS>ATOM
      1 C          63.1085   90.3165   11.0050 C.ar    1  UNL1        0.0030
      2 C          63.2851   91.2353    9.8326 C.ar    1  UNL1        0.0017
      3 C          64.1597   92.4477    9.9550 C.ar    1  UNL1        0.0206
      4 C          64.8578   92.7413   11.2498 C.ar    1  UNL1        0.0976
      5 N          65.7325   93.9537   11.3721 N.ar    1  UNL1       -0.2391
      6 C          66.4305   94.2473   12.6669 C.ar    1  UNL1        0.1380
      7 C          66.2539   93.3285   13.8394 C.ar    1  UNL1        0.1897
      8 N          66.8105   93.3599   15.2319 N.ar    1  UNL1       -0.1268
      9 N          66.2799   92.1668   15.9702 N.ar    1  UNL1       -0.1287
     10 C          65.3953   91.3982   15.0339 C.ar    1  UNL1        0.1661
     11 N          65.3792   92.1161   13.7170 N.ar    1  UNL1       -0.2714
     12 C          64.6812   91.8225   12.4222 C.ar    1  UNL1        0.0844
     13 C          63.8065   90.6101   12.2998 C.ar    1  UNL1        0.0192
     14 C          64.6564   90.1335   15.3577 C.2     1  UNL1        0.0124
     15 C          65.0689   88.9207   14.5773 C.2     1  UNL1       -0.0247
     16 C          64.5296   87.5239   14.6656 C.3     1  UNL1        0.0578
     17 C          63.4446   86.9946   15.5560 C.3     1  UNL1        0.1468
     18 O          62.6310   87.7318   16.5780 O.3     1  UNL1       -0.3531
     19 C          62.7013   89.1800   16.9622 C.3     1  UNL1        0.1469
     20 C          63.6028   90.2489   16.4191 C.3     1  UNL1        0.0612
     21 C          61.8533   86.5589   11.2397 C.ar    1  UNL1        0.0627
     22 C          60.4844   86.6791   10.6380 C.ar    1  UNL1        0.1000
     23 N          59.9903   88.0118   10.1587 N.ar    1  UNL1       -0.2425
     24 C          60.8650   89.2243   10.2810 C.ar    1  UNL1        0.0988
     25 C          62.2338   89.1040   10.8827 C.ar    1  UNL1        0.0191
     26 C          62.7279   87.7713   11.3620 C.ar    1  UNL1        0.0042
     27 F          62.3202   84.8984   13.1826 F       1  UNL1       -0.1932
     28 C          62.3474   85.2262   11.7191 C.3     1  UNL1        0.3425
     29 F          62.8686   84.2213   10.7350 F       1  UNL1       -0.1932
@<TRIPOS>BOND
     1    27    28    1
     2    28    29    1
     3    28    21    1
     4    21    22   ar
     5    22    23   ar
     6    23    24   ar
     7    24    25   ar
     8    25     1    1
     9     1     2   ar
    10     2     3   ar
    11     3     4   ar
    12     4     5   ar
    13     5     6   ar
    14     6     7   ar
    15     7     8   ar
    16     8     9   ar
    17     9    10   ar
    18    10    14    1
    19    14    15    2
    20    15    16    1
    21    16    17    1
    22    17    18    1
    23    18    19    1
    24    19    20    1
    25    10    11   ar
    26    11    12   ar
    27    12    13   ar
    28    25    26   ar
    29    26    21   ar
    30    13     1   ar
    31    12     4   ar
    32    11     7   ar
    33    20    14    1
@<TRIPOS>MOLECULE
*****
 29 33 0 0 0
SMALL
GASTEIGER

@<TRIPOS>ATOM
      1 C          63.2302   90.3809   10.9891 C.ar    1  UNL1        0.0030
      2 C          63.4233   91.3097    9.8272 C.ar    1  UNL1        0.0017
      3 C          64.2828   92.5298    9.9773 C.ar    1  UNL1        0.0206
      4 C          64.9493   92.8211   11.2892 C.ar    1  UNL1        0.0976
      5 N          65.8088   94.0412   11.4392 N.ar    1  UNL1       -0.2391
      6 C          66.4752   94.3325   12.7511 C.ar    1  UNL1        0.1380
      7 C          66.2821   93.4035   13.9130 C.ar    1  UNL1        0.1897
      8 N          66.8076   93.4305   15.3176 N.ar    1  UNL1       -0.1268
      9 N          66.2728   92.2270   16.0357 N.ar    1  UNL1       -0.1287
     10 C          65.4168   91.4563   15.0749 C.ar    1  UNL1        0.1661
     11 N          65.4226   92.1835   13.7629 N.ar    1  UNL1       -0.2714
     12 C          64.7562   91.8922   12.4510 C.ar    1  UNL1        0.0844
     13 C          63.8966   90.6721   12.3010 C.ar    1  UNL1        0.0192
     14 C          64.6838   90.1822   15.3735 C.2     1  UNL1        0.0124
     15 C          65.1161   88.9822   14.5841 C.2     1  UNL1       -0.0247
     16 C          64.5868   87.5802   14.6483 C.3     1  UNL1        0.0578
     17 C          63.4943   87.0318   15.5177 C.3     1  UNL1        0.1468
     18 O          62.6615   87.7501   16.5377 O.3     1  UNL1       -0.3531
     19 C          62.7152   89.1941   16.9402 C.3     1  UNL1        0.1469
     20 C          63.6153   90.2765   16.4220 C.3     1  UNL1        0.0612
     21 C          60.5080   87.8621    9.5766 C.ar    1  UNL1        0.0627
     22 C          60.6515   86.7205   10.5390 C.ar    1  UNL1        0.1000
     23 N          61.6547   86.7990   11.6514 N.ar    1  UNL1       -0.2425
     24 C          62.5143   88.0192   11.8015 C.ar    1  UNL1        0.0988
     25 C          62.3707   89.1607   10.8391 C.ar    1  UNL1        0.0191
     26 C          61.3675   89.0822    9.7266 C.ar    1  UNL1        0.0042
     27 F          59.3493   88.9322    7.5120 F       1  UNL1       -0.1932
     28 C          59.5048   87.7835    8.4641 C.3     1  UNL1        0.3425
     29 F          58.6572   86.5564    8.3038 F       1  UNL1       -0.1932
@<TRIPOS>BOND
     1    27    28    1
     2    28    29    1
     3    28    21    1
     4    21    22   ar
     5    22    23   ar
     6    23    24   ar
     7    24    25   ar
     8    25     1    1
     9     1     2   ar
    10     2     3   ar
    11     3     4   ar
    12     4     5   ar
    13     5     6   ar
    14     6     7   ar
    15     7     8   ar
    16     8     9   ar
    17     9    10   ar
    18    10    14    1
    19    14    15    2
    20    15    16    1
    21    16    17    1
    22    17    18    1
    23    18    19    1
    24    19    20    1
    25    10    11   ar
    26    11    12   ar
    27    12    13   ar
    28    25    26   ar
    29    26    21   ar
    30    13     1   ar
    31    12     4   ar
    32    11     7   ar
    33    20    14    1
@<TRIPOS>MOLECULE
*****
 29 33 0 0 0
SMALL
GASTEIGER

@<TRIPOS>ATOM
      1 C          63.6966   88.4744   13.1449 C.ar    1  UNL1        0.0030
      2 C          64.1666   88.8011   14.5313 C.ar    1  UNL1        0.0017
      3 C          64.3156   87.7097   15.5494 C.ar    1  UNL1        0.0206
      4 C          63.9946   86.2915   15.1811 C.ar    1  UNL1        0.0976
      5 N          64.1436   85.2001   16.1993 N.ar    1  UNL1       -0.2391
      6 C          63.8226   83.7819   15.8310 C.ar    1  UNL1        0.1380
      7 C          63.3525   83.4552   14.4445 C.ar    1  UNL1        0.1897
      8 N          62.9641   82.1597   13.7956 N.ar    1  UNL1       -0.1268
      9 N          62.5751   82.4506   12.3764 N.ar    1  UNL1       -0.1287
     10 C          62.7230   83.9257   12.1482 C.ar    1  UNL1        0.1661
     11 N          63.2035   84.5466   13.4264 N.ar    1  UNL1       -0.2714
     12 C          63.5245   85.9648   13.7947 C.ar    1  UNL1        0.0844
     13 C          63.3755   87.0562   12.7766 C.ar    1  UNL1        0.0192
     14 C          62.4401   84.6524   10.8669 C.2     1  UNL1        0.0124
     15 C          61.3436   85.6741   10.9264 C.2     1  UNL1       -0.0247
     16 C          60.8273   86.5571    9.8292 C.3     1  UNL1        0.0578
     17 C          61.2801   86.6364    8.4014 C.3     1  UNL1        0.1468
     18 O          62.3610   85.8523    7.7182 O.3     1  UNL1       -0.3531
     19 C          63.2561   84.7953    8.2939 C.3     1  UNL1        0.1469
     20 C          63.2913   84.2613    9.6953 C.3     1  UNL1        0.0612
     21 C          64.3412   91.8239   11.1164 C.ar    1  UNL1        0.0627
     22 C          63.2495   91.7486   10.0904 C.ar    1  UNL1        0.1000
     23 N          62.3068   90.5819   10.0826 N.ar    1  UNL1       -0.2425
     24 C          62.4558   89.4905   11.1008 C.ar    1  UNL1        0.0988
     25 C          63.5475   89.5658   12.1267 C.ar    1  UNL1        0.0191
     26 C          64.4902   90.7325   12.1345 C.ar    1  UNL1        0.0042
     27 F          65.9186   93.4506    9.8452 F       1  UNL1       -0.1932
     28 C          65.2839   92.9907   11.1242 C.3     1  UNL1        0.3425
     29 F          65.5920   93.6974   12.4108 F       1  UNL1       -0.1932
@<TRIPOS>BOND
     1    27    28    1
     2    28    29    1
     3    28    21    1
     4    21    22   ar
     5    22    23   ar
     6    23    24   ar
     7    24    25   ar
     8    25     1    1
     9     1     2   ar
    10     2     3   ar
    11     3     4   ar
    12     4     5   ar
    13     5     6   ar
    14     6     7   ar
    15     7     8   ar
    16     8     9   ar
    17     9    10   ar
    18    10    14    1
    19    14    15    2
    20    15    16    1
    21    16    17    1
    22    17    18    1
    23    18    19    1
    24    19    20    1
    25    10    11   ar
    26    11    12   ar
    27    12    13   ar
    28    25    26   ar
    29    26    21   ar
    30    13     1   ar
    31    12     4   ar
    32    11     7   ar
    33    20    14    1
@<TRIPOS>MOLECULE
*****
 29 33 0 0 0
SMALL
GASTEIGER

@<TRIPOS>ATOM
      1 C          64.1938   87.4982   14.5771 C.ar    1  UNL1        0.0030
      2 C          64.9542   86.4308   15.3067 C.ar    1  UNL1        0.0017
      3 C          64.9876   85.0317   14.7669 C.ar    1  UNL1        0.0206
      4 C          64.2606   84.7001   13.4974 C.ar    1  UNL1        0.0976
      5 N          64.2941   83.3009   12.9576 N.ar    1  UNL1       -0.2391
      6 C          63.5671   82.9693   11.6882 C.ar    1  UNL1        0.1380
      7 C          62.8066   84.0368   10.9585 C.ar    1  UNL1        0.1897
      8 N          62.0003   84.0084    9.6941 N.ar    1  UNL1       -0.1268
      9 N          61.4685   85.3900    9.4524 N.ar    1  UNL1       -0.1287
     10 C          61.9462   86.2722   10.5675 C.ar    1  UNL1        0.1661
     11 N          62.7732   85.4359   11.4984 N.ar    1  UNL1       -0.2714
     12 C          63.5002   85.7675   12.7678 C.ar    1  UNL1        0.0844
     13 C          63.4668   87.1665   13.3077 C.ar    1  UNL1        0.0192
     14 C          61.6490   87.7341   10.7243 C.2     1  UNL1        0.0124
     15 C          62.7333   88.6701   10.2791 C.2     1  UNL1       -0.0247
     16 C          62.7432   90.1698   10.3053 C.3     1  UNL1        0.0578
     17 C          61.6713   91.1040   10.7830 C.3     1  UNL1        0.1468
     18 O          60.3247   90.7691   11.3527 O.3     1  UNL1       -0.3531
     19 C          59.7174   89.4174   11.5853 C.3     1  UNL1        0.1469
     20 C          60.3068   88.0667   11.3056 C.3     1  UNL1        0.0612
     21 C          65.0001   91.3551   15.0510 C.ar    1  UNL1        0.0627
     22 C          64.0935   91.6956   16.1966 C.ar    1  UNL1        0.1000
     23 N          63.2203   90.6369   16.8023 N.ar    1  UNL1       -0.2425
     24 C          63.2538   89.2378   16.2625 C.ar    1  UNL1        0.0988
     25 C          64.1603   88.8973   15.1170 C.ar    1  UNL1        0.0191
     26 C          65.0335   89.9560   14.5113 C.ar    1  UNL1        0.0042
     27 F          66.7077   93.2934   15.3285 F       1  UNL1       -0.1932
     28 C          65.8732   92.4137   14.4453 C.3     1  UNL1        0.3425
     29 F          65.9119   92.5927   12.9566 F       1  UNL1       -0.1932
@<TRIPOS>BOND
     1    27    28    1
     2    28    29    1
     3    28    21    1
     4    21    22   ar
     5    22    23   ar
     6    23    24   ar
     7    24    25   ar
     8    25     1    1
     9     1     2   ar
    10     2     3   ar
    11     3     4   ar
    12     4     5   ar
    13     5     6   ar
    14     6     7   ar
    15     7     8   ar
    16     8     9   ar
    17     9    10   ar
    18    10    14    1
    19    14    15    2
    20    15    16    1
    21    16    17    1
    22    17    18    1
    23    18    19    1
    24    19    20    1
    25    10    11   ar
    26    11    12   ar
    27    12    13   ar
    28    25    26   ar
    29    26    21   ar
    30    13     1   ar
    31    12     4   ar
    32    11     7   ar
    33    20    14    1
