@<TRIPOS>MOLECULE
*****
 38 40 0 0 0
SMALL
GASTEIGER

@<TRIPOS>ATOM
      1 C          64.0881   87.7385   15.1592 C.ar    1  UNL1        0.1409
      2 N          64.6856   88.8856   14.3993 N.ar    1  UNL1       -0.1984
      3 C          64.4591   90.2932   14.8656 C.ar    1  UNL1        0.2214
      4 N          63.6351   90.5536   16.0918 N.ar    1  UNL1       -0.2119
      5 C          63.0378   89.4065   16.8516 C.ar    1  UNL1        0.1091
      6 C          63.2643   87.9990   16.3852 C.ar    1  UNL1        0.1040
      7 N          65.0564   91.4403   14.1059 N.pl3   1  UNL1       -0.2768
      8 C          65.9753   92.4018   14.7994 C.3     1  UNL1        0.0937
      9 C          66.5728   93.5489   14.0397 C.3     1  UNL1        0.0229
     10 C          66.2512   93.7345   12.5863 C.3     1  UNL1        0.0190
     11 C          65.3323   92.7729   11.8928 C.3     1  UNL1        0.0710
     12 N          65.0107   92.9585   10.4394 N.3     1  UNL1       -0.3208
     13 C          64.7349   91.6259   12.6525 C.3     1  UNL1        0.1090
     14 H          65.4991   93.7811   10.0855 H       1  UNL1        0.1189
     15 H          64.0049   93.0858   10.3273 H       1  UNL1        0.1189
     16 C          62.6668   86.8519   17.1451 C.2     1  UNL1        0.2470
     17 N          62.7399   86.8253   18.6430 N.am    1  UNL1       -0.3252
     18 O          61.9964   85.7313   16.4069 O.2     1  UNL1       -0.2702
     19 H          63.1800   87.5607   19.1275 H       1  UNL1        0.1453
     20 H          62.3478   86.0724   19.1417 H       1  UNL1        0.1453
     21 N          64.3147   86.3309   14.6928 N.pl3   1  UNL1       -0.2977
     22 H          64.8991   85.7295   15.2086 H       1  UNL1        0.1536
     23 C          62.3139   86.3207   11.2654 C.ar    1  UNL1       -0.0087
     24 C          62.9778   86.8119   12.5176 C.ar    1  UNL1        0.0113
     25 C          63.6507   85.8397   13.4406 C.ar    1  UNL1        0.0488
     26 C          63.6596   84.3763   13.1116 C.ar    1  UNL1        0.0113
     27 C          62.9957   83.8851   11.8594 C.ar    1  UNL1       -0.0087
     28 C          62.3228   84.8573   10.9364 C.ar    1  UNL1       -0.0065
     29 C          61.0191   86.1516    9.5936 C.3     1  UNL1        0.0196
     30 C          61.6411   87.2929   10.3424 C.3     1  UNL1        0.0981
     31 C          62.2630   88.4342   11.0911 C.3     1  UNL1        0.0196
     32 C          60.9682   88.2652    9.4193 C.1     1  UNL1        0.0752
     33 N          60.2953   89.2374    8.4962 N.1     1  UNL1       -0.1956
     34 C          63.0046   82.4216   11.5303 C.3     1  UNL1        0.0981
     35 C          63.8069   82.7044   10.2949 C.3     1  UNL1        0.0196
     36 C          62.2023   82.1389   12.7657 C.3     1  UNL1        0.0196
     37 C          63.0135   80.9582   11.2012 C.1     1  UNL1        0.0752
     38 N          63.0224   79.4948   10.8720 N.1     1  UNL1       -0.1956
@<TRIPOS>BOND
     1    29    30    1
     2    30    31    1
     3    30    32    1
     4    32    33    3
     5    30    23    1
     6    23    24   ar
     7    24    25   ar
     8    25    21    1
     9    21     1    1
    10     1     2   ar
    11     2     3   ar
    12     3     7    1
    13     7     8    1
    14     8     9    1
    15     9    10    1
    16    10    11    1
    17    11    12    1
    18    11    13    1
    19     3     4   ar
    20     4     5   ar
    21     5     6   ar
    22     6    16    1
    23    16    17   am
    24    16    18    2
    25    25    26   ar
    26    26    27   ar
    27    27    34    1
    28    34    35    1
    29    34    36    1
    30    34    37    1
    31    37    38    3
    32    27    28   ar
    33    28    23   ar
    34     6     1   ar
    35    13     7    1
    36    21    22    1
    37    12    14    1
    38    12    15    1
    39    17    19    1
    40    17    20    1
@<TRIPOS>MOLECULE
*****
 38 40 0 0 0
SMALL
GASTEIGER

@<TRIPOS>ATOM
      1 C          64.0817   87.7399   15.1659 C.ar    1  UNL1        0.1409
      2 N          64.6820   88.8816   14.4001 N.ar    1  UNL1       -0.1984
      3 C          64.4607   90.2920   14.8601 C.ar    1  UNL1        0.2214
      4 N          63.6390   90.5609   16.0860 N.ar    1  UNL1       -0.2119
      5 C          63.0388   89.4193   16.8517 C.ar    1  UNL1        0.1091
      6 C          63.2601   88.0088   16.3917 C.ar    1  UNL1        0.1040
      7 N          65.0610   91.4336   14.0944 N.pl3   1  UNL1       -0.2768
      8 C          66.0028   92.3811   14.7762 C.3     1  UNL1        0.0937
      9 C          66.6032   93.5228   14.0105 C.3     1  UNL1        0.0229
     10 C          66.2615   93.7168   12.5629 C.3     1  UNL1        0.0190
     11 C          65.3196   92.7692   11.8810 C.3     1  UNL1        0.0710
     12 N          64.9780   92.9633   10.4333 N.3     1  UNL1       -0.3208
     13 C          64.7193   91.6276   12.6467 C.3     1  UNL1        0.1090
     14 H          65.4714   93.7806   10.0742 H       1  UNL1        0.1189
     15 H          63.9723   93.1038   10.3372 H       1  UNL1        0.1189
     16 C          62.6598   86.8672   17.1575 C.2     1  UNL1        0.2470
     17 N          62.7355   86.8468   18.6555 N.am    1  UNL1       -0.3252
     18 O          61.9838   85.7461   16.4254 O.2     1  UNL1       -0.2702
     19 H          63.1792   87.5826   19.1360 H       1  UNL1        0.1453
     20 H          62.3415   86.0975   19.1581 H       1  UNL1        0.1453
     21 N          64.3031   86.3295   14.7059 N.pl3   1  UNL1       -0.2977
     22 H          64.8802   85.7263   15.2278 H       1  UNL1        0.1536
     23 C          62.9987   83.8832   11.8661 C.ar    1  UNL1       -0.0087
     24 C          63.6567   84.3747   13.1212 C.ar    1  UNL1        0.0113
     25 C          63.6450   85.8380   13.4506 C.ar    1  UNL1        0.0488
     26 C          62.9754   86.8099   12.5249 C.ar    1  UNL1        0.0113
     27 C          62.3175   86.3184   11.2697 C.ar    1  UNL1       -0.0087
     28 C          62.3291   84.8550   10.9403 C.ar    1  UNL1       -0.0065
     29 C          62.1963   82.1370   12.7644 C.3     1  UNL1        0.0196
     30 C          63.0104   82.4199   11.5367 C.3     1  UNL1        0.0981
     31 C          63.8245   82.7027   10.3090 C.3     1  UNL1        0.0196
     32 C          63.0220   80.9565   11.2073 C.1     1  UNL1        0.0752
     33 N          63.0337   79.4932   10.8779 N.1     1  UNL1       -0.1956
     34 C          61.6478   87.2903   10.3439 C.3     1  UNL1        0.0981
     35 C          62.2794   88.4313   11.0849 C.3     1  UNL1        0.0196
     36 C          61.0162   86.1492    9.6029 C.3     1  UNL1        0.0196
     37 C          60.9782   88.2621    9.4181 C.1     1  UNL1        0.0752
     38 N          60.3085   89.2340    8.4923 N.1     1  UNL1       -0.1956
@<TRIPOS>BOND
     1    29    30    1
     2    30    31    1
     3    30    32    1
     4    32    33    3
     5    30    23    1
     6    23    24   ar
     7    24    25   ar
     8    25    21    1
     9    21     1    1
    10     1     2   ar
    11     2     3   ar
    12     3     7    1
    13     7     8    1
    14     8     9    1
    15     9    10    1
    16    10    11    1
    17    11    12    1
    18    11    13    1
    19     3     4   ar
    20     4     5   ar
    21     5     6   ar
    22     6    16    1
    23    16    17   am
    24    16    18    2
    25    25    26   ar
    26    26    27   ar
    27    27    34    1
    28    34    35    1
    29    34    36    1
    30    34    37    1
    31    37    38    3
    32    27    28   ar
    33    28    23   ar
    34     6     1   ar
    35    13     7    1
    36    21    22    1
    37    12    14    1
    38    12    15    1
    39    17    19    1
    40    17    20    1
@<TRIPOS>MOLECULE
*****
 38 40 0 0 0
SMALL
GASTEIGER

@<TRIPOS>ATOM
      1 C          63.7003   90.6498   13.2186 C.ar    1  UNL1        0.1409
      2 N          64.3357   91.5374   12.1898 N.ar    1  UNL1       -0.1984
      3 C          65.7203   92.0703   12.4112 C.ar    1  UNL1        0.2214
      4 N          66.4694   91.7155   13.6615 N.ar    1  UNL1       -0.2119
      5 C          65.8340   90.8279   14.6902 C.ar    1  UNL1        0.1091
      6 C          64.4494   90.2950   14.4687 C.ar    1  UNL1        0.1040
      7 N          66.3557   92.9579   11.3825 N.pl3   1  UNL1       -0.2768
      8 C          67.2055   92.3619   10.2996 C.3     1  UNL1        0.0937
      9 C          67.8410   93.2495    9.2709 C.3     1  UNL1        0.0229
     10 C          67.6267   94.7331    9.3250 C.3     1  UNL1        0.0190
     11 C          66.7769   95.3291   10.4080 C.3     1  UNL1        0.0710
     12 N          66.5627   96.8128   10.4622 N.3     1  UNL1       -0.3208
     13 C          66.1415   94.4415   11.4367 C.3     1  UNL1        0.1090
     14 H          67.0638   97.2570    9.6928 H       1  UNL1        0.1189
     15 H          66.9121   97.1746   11.3495 H       1  UNL1        0.1189
     16 C          63.8139   89.4073   15.4975 C.2     1  UNL1        0.2470
     17 N          63.1204   90.0103   16.6830 N.am    1  UNL1       -0.3252
     18 O          63.8721   87.9167   15.3408 O.2     1  UNL1       -0.2702
     19 H          63.0822   90.9887   16.7858 H       1  UNL1        0.1453
     20 H          62.7033   89.4278   17.3582 H       1  UNL1        0.1453
     21 N          62.3157   90.1169   12.9972 N.pl3   1  UNL1       -0.2977
     22 H          61.5689   90.4417   13.5504 H       1  UNL1        0.1536
     23 C          62.3641   86.6719   11.0274 C.ar    1  UNL1       -0.0087
     24 C          62.6108   87.6996   12.0918 C.ar    1  UNL1        0.0113
     25 C          62.0689   89.0892   11.9327 C.ar    1  UNL1        0.0488
     26 C          61.2803   89.4512   10.7092 C.ar    1  UNL1        0.0113
     27 C          61.0336   88.4235    9.6448 C.ar    1  UNL1       -0.0087
     28 C          61.5755   87.0339    9.8039 C.ar    1  UNL1       -0.0065
     29 C          63.0357   85.5022   12.6646 C.3     1  UNL1        0.0196
     30 C          62.9060   85.2823   11.1865 C.3     1  UNL1        0.0981
     31 C          62.7762   85.0625    9.7084 C.3     1  UNL1        0.0196
     32 C          63.4478   83.8927   11.3456 C.1     1  UNL1        0.0752
     33 N          63.9897   82.5031   11.5048 N.1     1  UNL1       -0.1956
     34 C          60.2449   88.7854    8.4212 C.3     1  UNL1        0.0981
     35 C          60.2640   87.3506    7.9845 C.3     1  UNL1        0.0196
     36 C          60.2258   90.2203    8.8578 C.3     1  UNL1        0.0196
     37 C          59.4563   89.1473    7.1976 C.1     1  UNL1        0.0752
     38 N          58.6677   89.5091    5.9740 N.1     1  UNL1       -0.1956
@<TRIPOS>BOND
     1    29    30    1
     2    30    31    1
     3    30    32    1
     4    32    33    3
     5    30    23    1
     6    23    24   ar
     7    24    25   ar
     8    25    21    1
     9    21     1    1
    10     1     2   ar
    11     2     3   ar
    12     3     7    1
    13     7     8    1
    14     8     9    1
    15     9    10    1
    16    10    11    1
    17    11    12    1
    18    11    13    1
    19     3     4   ar
    20     4     5   ar
    21     5     6   ar
    22     6    16    1
    23    16    17   am
    24    16    18    2
    25    25    26   ar
    26    26    27   ar
    27    27    34    1
    28    34    35    1
    29    34    36    1
    30    34    37    1
    31    37    38    3
    32    27    28   ar
    33    28    23   ar
    34     6     1   ar
    35    13     7    1
    36    21    22    1
    37    12    14    1
    38    12    15    1
    39    17    19    1
    40    17    20    1
@<TRIPOS>MOLECULE
*****
 38 40 0 0 0
SMALL
GASTEIGER

@<TRIPOS>ATOM
      1 C          63.7144   90.6645   13.2194 C.ar    1  UNL1        0.1409
      2 N          64.3471   91.5545   12.1910 N.ar    1  UNL1       -0.1984
      3 C          65.7326   92.0861   12.4097 C.ar    1  UNL1        0.2214
      4 N          66.4854   91.7277   13.6567 N.ar    1  UNL1       -0.2119
      5 C          65.8526   90.8376   14.6850 C.ar    1  UNL1        0.1091
      6 C          64.4671   90.3061   14.4664 C.ar    1  UNL1        0.1040
      7 N          66.3654   92.9761   11.3814 N.pl3   1  UNL1       -0.2768
      8 C          67.2305   92.3849   10.3081 C.3     1  UNL1        0.0937
      9 C          67.8634   93.2750    9.2797 C.3     1  UNL1        0.0229
     10 C          67.6309   94.7562    9.3247 C.3     1  UNL1        0.0190
     11 C          66.7657   95.3473   10.3980 C.3     1  UNL1        0.0710
     12 N          66.5333   96.8285   10.4430 N.3     1  UNL1       -0.3208
     13 C          66.1330   94.4573   11.4263 C.3     1  UNL1        0.1090
     14 H          67.0351   97.2749    9.6753 H       1  UNL1        0.1189
     15 H          66.8715   97.1990   11.3311 H       1  UNL1        0.1189
     16 C          63.8343   89.4160   15.4947 C.2     1  UNL1        0.2470
     17 N          63.1308   90.0165   16.6756 N.am    1  UNL1       -0.3252
     18 O          63.9051   87.9255   15.3422 O.2     1  UNL1       -0.2702
     19 H          63.0844   90.9948   16.7757 H       1  UNL1        0.1453
     20 H          62.7156   89.4323   17.3505 H       1  UNL1        0.1453
     21 N          62.3289   90.1329   13.0008 N.pl3   1  UNL1       -0.2977
     22 H          61.5827   90.4616   13.5526 H       1  UNL1        0.1536
     23 C          61.0432   88.4255    9.6568 C.ar    1  UNL1       -0.0087
     24 C          61.2919   89.4578   10.7162 C.ar    1  UNL1        0.0113
     25 C          62.0802   89.1005   11.9414 C.ar    1  UNL1        0.0488
     26 C          62.6197   87.7107   12.1071 C.ar    1  UNL1        0.0113
     27 C          62.3710   86.6784   11.0477 C.ar    1  UNL1       -0.0087
     28 C          61.5828   87.0358    9.8226 C.ar    1  UNL1       -0.0065
     29 C          60.2030   90.2127    8.8823 C.3     1  UNL1        0.0196
     30 C          60.2550   88.7829    8.4317 C.3     1  UNL1        0.0981
     31 C          60.3070   87.3531    7.9811 C.3     1  UNL1        0.0196
     32 C          59.4667   89.1403    7.2066 C.1     1  UNL1        0.0752
     33 N          58.6785   89.4977    5.9814 N.1     1  UNL1       -0.1956
     34 C          62.9106   85.2886   11.2134 C.3     1  UNL1        0.0981
     35 C          63.0525   85.5196   12.6886 C.3     1  UNL1        0.0196
     36 C          62.7687   85.0576    9.7381 C.3     1  UNL1        0.0196
     37 C          63.4501   83.8989   11.3791 C.1     1  UNL1        0.0752
     38 N          63.9897   82.5091   11.5449 N.1     1  UNL1       -0.1956
@<TRIPOS>BOND
     1    29    30    1
     2    30    31    1
     3    30    32    1
     4    32    33    3
     5    30    23    1
     6    23    24   ar
     7    24    25   ar
     8    25    21    1
     9    21     1    1
    10     1     2   ar
    11     2     3   ar
    12     3     7    1
    13     7     8    1
    14     8     9    1
    15     9    10    1
    16    10    11    1
    17    11    12    1
    18    11    13    1
    19     3     4   ar
    20     4     5   ar
    21     5     6   ar
    22     6    16    1
    23    16    17   am
    24    16    18    2
    25    25    26   ar
    26    26    27   ar
    27    27    34    1
    28    34    35    1
    29    34    36    1
    30    34    37    1
    31    37    38    3
    32    27    28   ar
    33    28    23   ar
    34     6     1   ar
    35    13     7    1
    36    21    22    1
    37    12    14    1
    38    12    15    1
    39    17    19    1
    40    17    20    1
@<TRIPOS>MOLECULE
*****
 38 40 0 0 0
SMALL
GASTEIGER

@<TRIPOS>ATOM
      1 C          64.5366   91.7663   13.4541 C.ar    1  UNL1        0.1409
      2 N          65.1406   92.1018   12.1226 N.ar    1  UNL1       -0.1984
      3 C          66.5167   92.6943   12.0512 C.ar    1  UNL1        0.2214
      4 N          67.2889   92.9514   13.3113 N.ar    1  UNL1       -0.2119
      5 C          66.6849   92.6160   14.6427 C.ar    1  UNL1        0.1091
      6 C          65.3088   92.0234   14.7141 C.ar    1  UNL1        0.1040
      7 N          67.1207   93.0298   10.7198 N.pl3   1  UNL1       -0.2768
      8 C          68.0657   92.0688   10.0615 C.3     1  UNL1        0.0937
      9 C          68.6697   92.4042    8.7300 C.3     1  UNL1        0.0229
     10 C          68.3288   93.7007    8.0570 C.3     1  UNL1        0.0190
     11 C          67.3838   94.6617    8.7155 C.3     1  UNL1        0.0710
     12 N          67.0428   95.9582    8.0425 N.3     1  UNL1       -0.3208
     13 C          66.7798   94.3263   10.0468 C.3     1  UNL1        0.1090
     14 H          67.5389   96.0205    7.1534 H       1  UNL1        0.1189
     15 H          67.3201   96.7356    8.6418 H       1  UNL1        0.1189
     16 C          64.7048   91.6879   16.0455 C.2     1  UNL1        0.2470
     17 N          64.9497   92.5800   17.2263 N.am    1  UNL1       -0.3252
     18 O          63.8559   90.4604   16.1961 O.2     1  UNL1       -0.2702
     19 H          65.5068   93.3856   17.1275 H       1  UNL1        0.1453
     20 H          64.5533   92.3598   18.1002 H       1  UNL1        0.1453
     21 N          63.1605   91.1737   13.5255 N.pl3   1  UNL1       -0.2977
     22 H          62.4588   91.6207   14.0519 H       1  UNL1        0.1536
     23 C          61.7271   88.6615   10.8081 C.ar    1  UNL1       -0.0087
     24 C          62.0341   89.9350   11.5388 C.ar    1  UNL1        0.0113
     25 C          62.8535   89.9002   12.7948 C.ar    1  UNL1        0.0488
     26 C          63.3658   88.5919   13.3200 C.ar    1  UNL1        0.0113
     27 C          63.0588   87.3185   12.5893 C.ar    1  UNL1       -0.0087
     28 C          62.2394   87.3532   11.3333 C.ar    1  UNL1       -0.0065
     29 C          60.3566   90.0338    9.9487 C.3     1  UNL1        0.0196
     30 C          60.9078   88.6963    9.5521 C.3     1  UNL1        0.0981
     31 C          61.4590   87.3588    9.1555 C.3     1  UNL1        0.0196
     32 C          60.0885   88.7311    8.2961 C.1     1  UNL1        0.0752
     33 N          59.2692   88.7659    7.0401 N.1     1  UNL1       -0.1956
     34 C          63.5711   86.0101   13.1146 C.3     1  UNL1        0.0981
     35 C          62.8506   85.2868   12.0156 C.3     1  UNL1        0.0196
     36 C          64.2915   86.7334   14.2136 C.3     1  UNL1        0.0196
     37 C          64.0833   84.7018   13.6398 C.1     1  UNL1        0.0752
     38 N          64.5956   83.3934   14.1651 N.1     1  UNL1       -0.1956
@<TRIPOS>BOND
     1    29    30    1
     2    30    31    1
     3    30    32    1
     4    32    33    3
     5    30    23    1
     6    23    24   ar
     7    24    25   ar
     8    25    21    1
     9    21     1    1
    10     1     2   ar
    11     2     3   ar
    12     3     7    1
    13     7     8    1
    14     8     9    1
    15     9    10    1
    16    10    11    1
    17    11    12    1
    18    11    13    1
    19     3     4   ar
    20     4     5   ar
    21     5     6   ar
    22     6    16    1
    23    16    17   am
    24    16    18    2
    25    25    26   ar
    26    26    27   ar
    27    27    34    1
    28    34    35    1
    29    34    36    1
    30    34    37    1
    31    37    38    3
    32    27    28   ar
    33    28    23   ar
    34     6     1   ar
    35    13     7    1
    36    21    22    1
    37    12    14    1
    38    12    15    1
    39    17    19    1
    40    17    20    1
@<TRIPOS>MOLECULE
*****
 38 40 0 0 0
SMALL
GASTEIGER

@<TRIPOS>ATOM
      1 C          63.7714   86.8653   15.0751 C.ar    1  UNL1        0.1409
      2 N          63.8494   85.8636   13.9613 N.ar    1  UNL1       -0.1984
      3 C          63.2065   84.5173   14.1170 C.ar    1  UNL1        0.2214
      4 N          62.4855   84.1728   15.3865 N.ar    1  UNL1       -0.2119
      5 C          62.4075   85.1745   16.5002 C.ar    1  UNL1        0.1091
      6 C          63.0505   86.5207   16.3446 C.ar    1  UNL1        0.1040
      7 N          63.2844   83.5157   13.0032 N.pl3   1  UNL1       -0.2768
      8 C          63.7700   83.9372   11.6481 C.3     1  UNL1        0.0937
      9 C          63.8480   82.9355   10.5342 C.3     1  UNL1        0.0229
     10 C          63.4404   81.5123   10.7756 C.3     1  UNL1        0.0190
     11 C          62.9549   81.0907   12.1308 C.3     1  UNL1        0.0710
     12 N          62.5473   79.6675   12.3722 N.3     1  UNL1       -0.3208
     13 C          62.8769   82.0924   13.2446 C.3     1  UNL1        0.1090
     14 H          62.6635   79.1302   11.5131 H       1  UNL1        0.1189
     15 H          61.5697   79.6382   12.6620 H       1  UNL1        0.1189
     16 C          62.9725   87.5225   17.4584 C.2     1  UNL1        0.2470
     17 N          62.7199   87.0632   18.8638 N.am    1  UNL1       -0.3252
     18 O          63.1470   88.9834   17.1667 O.2     1  UNL1       -0.2702
     19 H          62.6054   86.1043   19.0552 H       1  UNL1        0.1453
     20 H          62.6687   87.7206   19.5948 H       1  UNL1        0.1453
     21 N          64.4144   88.2115   14.9195 N.pl3   1  UNL1       -0.2977
     22 H          65.0289   88.5466   15.6118 H       1  UNL1        0.1536
     23 C          64.5253   91.1972   12.3072 C.ar    1  UNL1       -0.0087
     24 C          64.8187   90.3614   13.5177 C.ar    1  UNL1        0.0113
     25 C          64.1209   89.0474   13.7089 C.ar    1  UNL1        0.0488
     26 C          63.1298   88.5692   12.6897 C.ar    1  UNL1        0.0113
     27 C          62.8364   89.4050   11.4792 C.ar    1  UNL1       -0.0087
     28 C          63.5341   90.7190   11.2880 C.ar    1  UNL1       -0.0065
     29 C          64.7713   92.5429   10.6860 C.3     1  UNL1        0.0196
     30 C          65.2231   92.5112   12.1160 C.3     1  UNL1        0.0981
     31 C          65.6748   92.4794   13.5460 C.3     1  UNL1        0.0196
     32 C          65.9208   93.8251   11.9248 C.1     1  UNL1        0.0752
     33 N          66.6186   95.1391   11.7335 N.1     1  UNL1       -0.1956
     34 C          61.8452   88.9268   10.4599 C.3     1  UNL1        0.0981
     35 C          61.5806   90.3457   10.0516 C.3     1  UNL1        0.0196
     36 C          62.1097   87.5080   10.8681 C.3     1  UNL1        0.0196
     37 C          60.8540   88.4488    9.4406 C.1     1  UNL1        0.0752
     38 N          59.8628   87.9706    8.4212 N.1     1  UNL1       -0.1956
@<TRIPOS>BOND
     1    29    30    1
     2    30    31    1
     3    30    32    1
     4    32    33    3
     5    30    23    1
     6    23    24   ar
     7    24    25   ar
     8    25    21    1
     9    21     1    1
    10     1     2   ar
    11     2     3   ar
    12     3     7    1
    13     7     8    1
    14     8     9    1
    15     9    10    1
    16    10    11    1
    17    11    12    1
    18    11    13    1
    19     3     4   ar
    20     4     5   ar
    21     5     6   ar
    22     6    16    1
    23    16    17   am
    24    16    18    2
    25    25    26   ar
    26    26    27   ar
    27    27    34    1
    28    34    35    1
    29    34    36    1
    30    34    37    1
    31    37    38    3
    32    27    28   ar
    33    28    23   ar
    34     6     1   ar
    35    13     7    1
    36    21    22    1
    37    12    14    1
    38    12    15    1
    39    17    19    1
    40    17    20    1
@<TRIPOS>MOLECULE
*****
 38 40 0 0 0
SMALL
GASTEIGER

@<TRIPOS>ATOM
      1 C          63.7695   86.9391   15.0720 C.ar    1  UNL1        0.1409
      2 N          63.8476   85.9270   13.9676 N.ar    1  UNL1       -0.1984
      3 C          63.2045   84.5823   14.1358 C.ar    1  UNL1        0.2214
      4 N          62.4833   84.2498   15.4084 N.ar    1  UNL1       -0.2119
      5 C          62.4051   85.2619   16.5126 C.ar    1  UNL1        0.1091
      6 C          63.0482   86.6066   16.3444 C.ar    1  UNL1        0.1040
      7 N          63.2827   83.5702   13.0316 N.pl3   1  UNL1       -0.2768
      8 C          63.7736   83.9777   11.6741 C.3     1  UNL1        0.0937
      9 C          63.8518   82.9656   10.5697 C.3     1  UNL1        0.0229
     10 C          63.4390   81.5459   10.8229 C.3     1  UNL1        0.0190
     11 C          62.9480   81.1384   12.1805 C.3     1  UNL1        0.0710
     12 N          62.5352   79.7187   12.4337 N.3     1  UNL1       -0.3208
     13 C          62.8699   82.1505   13.2848 C.3     1  UNL1        0.1090
     14 H          62.6523   79.1731   11.5799 H       1  UNL1        0.1189
     15 H          61.5567   79.6952   12.7208 H       1  UNL1        0.1189
     16 C          62.9700   87.6187   17.4488 C.2     1  UNL1        0.2470
     17 N          62.6971   87.1746   18.8553 N.am    1  UNL1       -0.3252
     18 O          63.1649   89.0750   17.1466 O.2     1  UNL1       -0.2702
     19 H          62.5692   86.2188   19.0536 H       1  UNL1        0.1453
     20 H          62.6457   87.8389   19.5800 H       1  UNL1        0.1453
     21 N          64.4126   88.2838   14.9038 N.pl3   1  UNL1       -0.2977
     22 H          65.0353   88.6206   15.5879 H       1  UNL1        0.1536
     23 C          62.7775   89.4792   11.4910 C.ar    1  UNL1       -0.0087
     24 C          63.0832   88.6479   12.7015 C.ar    1  UNL1        0.0113
     25 C          64.1069   89.1152   13.6933 C.ar    1  UNL1        0.0488
     26 C          64.8249   90.4139   13.4746 C.ar    1  UNL1        0.0113
     27 C          64.5192   91.2452   12.2641 C.ar    1  UNL1       -0.0087
     28 C          63.4955   90.7779   11.2723 C.ar    1  UNL1       -0.0065
     29 C          62.3149   87.6228   10.5746 C.3     1  UNL1        0.0196
     30 C          61.7538   89.0119   10.4992 C.3     1  UNL1        0.0981
     31 C          61.1927   90.4010   10.4238 C.3     1  UNL1        0.0196
     32 C          60.7301   88.5446    9.5074 C.1     1  UNL1        0.0752
     33 N          59.7064   88.0773    8.5156 N.1     1  UNL1       -0.1956
     34 C          65.2372   92.5440   12.0453 C.3     1  UNL1        0.0981
     35 C          64.7656   92.5648   10.6216 C.3     1  UNL1        0.0196
     36 C          65.7088   92.5231   13.4690 C.3     1  UNL1        0.0196
     37 C          65.9551   93.8427   11.8265 C.1     1  UNL1        0.0752
     38 N          66.6731   95.1414   11.6077 N.1     1  UNL1       -0.1956
@<TRIPOS>BOND
     1    29    30    1
     2    30    31    1
     3    30    32    1
     4    32    33    3
     5    30    23    1
     6    23    24   ar
     7    24    25   ar
     8    25    21    1
     9    21     1    1
    10     1     2   ar
    11     2     3   ar
    12     3     7    1
    13     7     8    1
    14     8     9    1
    15     9    10    1
    16    10    11    1
    17    11    12    1
    18    11    13    1
    19     3     4   ar
    20     4     5   ar
    21     5     6   ar
    22     6    16    1
    23    16    17   am
    24    16    18    2
    25    25    26   ar
    26    26    27   ar
    27    27    34    1
    28    34    35    1
    29    34    36    1
    30    34    37    1
    31    37    38    3
    32    27    28   ar
    33    28    23   ar
    34     6     1   ar
    35    13     7    1
    36    21    22    1
    37    12    14    1
    38    12    15    1
    39    17    19    1
    40    17    20    1
@<TRIPOS>MOLECULE
*****
 38 40 0 0 0
SMALL
GASTEIGER

@<TRIPOS>ATOM
      1 C          63.4349   90.5323   12.1879 C.ar    1  UNL1        0.1409
      2 N          64.2877   91.3134   11.2326 N.ar    1  UNL1       -0.1984
      3 C          65.4705   92.0835   11.7405 C.ar    1  UNL1        0.2214
      4 N          65.8005   92.0724   13.2037 N.ar    1  UNL1       -0.2119
      5 C          64.9477   91.2912   14.1590 C.ar    1  UNL1        0.1091
      6 C          63.7649   90.5212   13.6511 C.ar    1  UNL1        0.1040
      7 N          66.3232   92.8646   10.7852 N.pl3   1  UNL1       -0.2768
      8 C          67.5477   92.2373   10.1878 C.3     1  UNL1        0.0937
      9 C          68.4006   93.0184    9.2325 C.3     1  UNL1        0.0229
     10 C          68.0289   94.4269    8.8747 C.3     1  UNL1        0.0190
     11 C          66.8043   95.0542    9.4722 C.3     1  UNL1        0.0710
     12 N          66.4326   96.4627    9.1144 N.3     1  UNL1       -0.3208
     13 C          65.9515   94.2731   10.4274 C.3     1  UNL1        0.1090
     14 H          67.1172   96.8389    8.4586 H       1  UNL1        0.1189
     15 H          66.4195   97.0357    9.9582 H       1  UNL1        0.1189
     16 C          62.9121   89.7400   14.6064 C.2     1  UNL1        0.2470
     17 N          63.5519   88.9519   15.7107 N.am    1  UNL1       -0.3252
     18 O          61.4195   89.7470   14.4573 O.2     1  UNL1       -0.2702
     19 H          64.5315   88.9474   15.8086 H       1  UNL1        0.1453
     20 H          62.9922   88.4393   16.3377 H       1  UNL1        0.1453
     21 N          62.2521   89.7622   11.6800 N.pl3   1  UNL1       -0.2977
     22 H          61.3936   90.2204   11.5308 H       1  UNL1        0.1536
     23 C          62.1568   86.2895    9.7612 C.ar    1  UNL1       -0.0087
     24 C          62.0316   87.7577   10.0419 C.ar    1  UNL1        0.0113
     25 C          62.3773   88.2940   11.3994 C.ar    1  UNL1        0.0488
     26 C          62.8483   87.3621   12.4763 C.ar    1  UNL1        0.0113
     27 C          62.9736   85.8939   12.1956 C.ar    1  UNL1       -0.0087
     28 C          62.6278   85.3577   10.8381 C.ar    1  UNL1       -0.0065
     29 C          63.1714   85.1292    8.3037 C.3     1  UNL1        0.0196
     30 C          61.8111   85.7532    8.4037 C.3     1  UNL1        0.0981
     31 C          60.4507   86.3772    8.5037 C.3     1  UNL1        0.0196
     32 C          61.4653   85.2169    7.0462 C.1     1  UNL1        0.0752
     33 N          61.1195   84.6807    5.6887 N.1     1  UNL1       -0.1956
     34 C          63.4446   84.9620   13.2726 C.3     1  UNL1        0.0981
     35 C          62.8098   83.8093   12.5526 C.3     1  UNL1        0.0196
     36 C          64.0794   86.1146   13.9925 C.3     1  UNL1        0.0196
     37 C          63.9156   84.0300   14.3494 C.1     1  UNL1        0.0752
     38 N          64.3866   83.0980   15.4263 N.1     1  UNL1       -0.1956
@<TRIPOS>BOND
     1    29    30    1
     2    30    31    1
     3    30    32    1
     4    32    33    3
     5    30    23    1
     6    23    24   ar
     7    24    25   ar
     8    25    21    1
     9    21     1    1
    10     1     2   ar
    11     2     3   ar
    12     3     7    1
    13     7     8    1
    14     8     9    1
    15     9    10    1
    16    10    11    1
    17    11    12    1
    18    11    13    1
    19     3     4   ar
    20     4     5   ar
    21     5     6   ar
    22     6    16    1
    23    16    17   am
    24    16    18    2
    25    25    26   ar
    26    26    27   ar
    27    27    34    1
    28    34    35    1
    29    34    36    1
    30    34    37    1
    31    37    38    3
    32    27    28   ar
    33    28    23   ar
    34     6     1   ar
    35    13     7    1
    36    21    22    1
    37    12    14    1
    38    12    15    1
    39    17    19    1
    40    17    20    1
@<TRIPOS>MOLECULE
*****
 38 40 0 0 0
SMALL
GASTEIGER

@<TRIPOS>ATOM
      1 C          63.4259   90.5525   12.0913 C.ar    1  UNL1        0.1409
      2 N          64.2883   91.3203   11.1339 N.ar    1  UNL1       -0.1984
      3 C          65.4674   92.0956   11.6426 C.ar    1  UNL1        0.2214
      4 N          65.7839   92.1031   13.1089 N.ar    1  UNL1       -0.2119
      5 C          64.9214   91.3353   14.0663 C.ar    1  UNL1        0.1091
      6 C          63.7424   90.5600   13.5575 C.ar    1  UNL1        0.1040
      7 N          66.3298   92.8634   10.6853 N.pl3   1  UNL1       -0.2768
      8 C          67.5651   92.2310   10.1159 C.3     1  UNL1        0.0937
      9 C          68.4276   92.9988    9.1585 C.3     1  UNL1        0.0229
     10 C          68.0548   94.3989    8.7704 C.3     1  UNL1        0.0190
     11 C          66.8194   95.0313    9.3398 C.3     1  UNL1        0.0710
     12 N          66.4466   96.4314    8.9517 N.3     1  UNL1       -0.3208
     13 C          65.9570   94.2635   10.2972 C.3     1  UNL1        0.1090
     14 H          67.1386   96.7989    8.2986 H       1  UNL1        0.1189
     15 H          66.4194   97.0194    9.7848 H       1  UNL1        0.1189
     16 C          62.8800   89.7922   14.5150 C.2     1  UNL1        0.2470
     17 N          63.5055   89.0519   15.6598 N.am    1  UNL1       -0.3252
     18 O          61.3920   89.7647   14.3275 O.2     1  UNL1       -0.2702
     19 H          64.4821   89.0700   15.7829 H       1  UNL1        0.1453
     20 H          62.9394   88.5480   16.2882 H       1  UNL1        0.1453
     21 N          62.2469   89.7772   11.5826 N.pl3   1  UNL1       -0.2977
     22 H          61.3902   90.2343   11.4198 H       1  UNL1        0.1536
     23 C          62.9582   85.9149   12.1543 C.ar    1  UNL1       -0.0087
     24 C          62.8320   87.3866   12.4150 C.ar    1  UNL1        0.0113
     25 C          62.3731   88.3054   11.3218 C.ar    1  UNL1        0.0488
     26 C          62.0403   87.7524    9.9677 C.ar    1  UNL1        0.0113
     27 C          62.1665   86.2807    9.7070 C.ar    1  UNL1       -0.0087
     28 C          62.6254   85.3619   10.8003 C.ar    1  UNL1       -0.0065
     29 C          64.0474   86.1569   13.9585 C.3     1  UNL1        0.0196
     30 C          63.4172   84.9962   13.2476 C.3     1  UNL1        0.0981
     31 C          62.7870   83.8354   12.5367 C.3     1  UNL1        0.0196
     32 C          63.8761   84.0774   14.3409 C.1     1  UNL1        0.0752
     33 N          64.3351   83.1587   15.4341 N.1     1  UNL1       -0.1956
     34 C          61.8337   85.7276    8.3529 C.3     1  UNL1        0.0981
     35 C          60.4747   86.3577    8.4296 C.3     1  UNL1        0.0196
     36 C          63.1927   85.0975    8.2762 C.3     1  UNL1        0.0196
     37 C          61.5009   85.1746    6.9989 C.1     1  UNL1        0.0752
     38 N          61.1681   84.6216    5.6448 N.1     1  UNL1       -0.1956
@<TRIPOS>BOND
     1    29    30    1
     2    30    31    1
     3    30    32    1
     4    32    33    3
     5    30    23    1
     6    23    24   ar
     7    24    25   ar
     8    25    21    1
     9    21     1    1
    10     1     2   ar
    11     2     3   ar
    12     3     7    1
    13     7     8    1
    14     8     9    1
    15     9    10    1
    16    10    11    1
    17    11    12    1
    18    11    13    1
    19     3     4   ar
    20     4     5   ar
    21     5     6   ar
    22     6    16    1
    23    16    17   am
    24    16    18    2
    25    25    26   ar
    26    26    27   ar
    27    27    34    1
    28    34    35    1
    29    34    36    1
    30    34    37    1
    31    37    38    3
    32    27    28   ar
    33    28    23   ar
    34     6     1   ar
    35    13     7    1
    36    21    22    1
    37    12    14    1
    38    12    15    1
    39    17    19    1
    40    17    20    1
