@<TRIPOS>MOLECULE
*****
 58 65 0 0 0
SMALL
GASTEIGER

@<TRIPOS>ATOM
      1 N          65.3522   89.4054   14.6743 N.3     1  UNL1       -0.1862
      2 C          65.5229   88.1630   15.4973 C.3     1  UNL1        0.1775
      3 C          64.8009   86.9050   15.1150 C.2     1  UNL1        0.2452
      4 O          64.9717   85.6626   15.9381 O.2     1  UNL1       -0.2732
      5 N          63.9083   86.8893   13.9097 N.am    1  UNL1       -0.2541
      6 C          63.1863   85.6313   13.5274 C.3     1  UNL1        0.1577
      7 C          62.2936   85.6157   12.3220 C.2     1  UNL1        0.2445
      8 O          61.5716   84.3577   11.9397 O.2     1  UNL1       -0.2731
      9 N          62.1229   86.8581   11.4990 N.am    1  UNL1       -0.2705
     10 C          62.8448   88.1161   11.8813 C.3     1  UNL1        0.1359
     11 C          63.7376   88.1317   13.0867 C.3     1  UNL1        0.1908
     12 N          64.4595   89.3897   13.4690 N.am    1  UNL1       -0.1863
     13 C          64.2888   90.6321   12.6459 C.2     1  UNL1        0.3191
     14 O          63.3961   90.6164   11.4406 O.2     1  UNL1       -0.2512
     15 N          65.0108   91.8901   13.0282 N.am    1  UNL1       -0.2836
     16 H          65.5967   91.9004   13.8193 H       1  UNL1        0.1513
     17 C          66.0742   90.6634   15.0566 C.3     1  UNL1        0.1188
     18 C          68.1123   92.2468   14.7585 C.2     1  UNL1       -0.0034
     19 C          67.4722   90.9036   14.5688 C.2     1  UNL1       -0.0071
     20 C          63.3570   84.3890   14.3504 C.3     1  UNL1        0.0556
     21 C          63.1596   83.0408   13.7231 C.ar    1  UNL1       -0.0198
     22 C          63.9878   82.6356   12.5400 C.ar    1  UNL1       -0.0011
     23 C          63.7905   81.2874   11.9128 C.ar    1  UNL1        0.0363
     24 C          62.7649   80.3444   12.4686 C.ar    1  UNL1        0.1337
     25 O          62.5675   78.9962   11.8414 O.3     1  UNL1       -0.5055
     26 C          61.9366   80.7497   13.6518 C.ar    1  UNL1        0.0363
     27 C          62.1340   82.0979   14.2790 C.ar    1  UNL1       -0.0011
     28 H          63.0849   78.7431   11.1023 H       1  UNL1        0.2922
     29 C          61.2302   86.8424   10.2937 C.3     1  UNL1        0.1217
     30 C          60.5903   88.1129    9.8176 C.ar    1  UNL1        0.0135
     31 C          60.4362   89.2726   10.7565 C.ar    1  UNL1       -0.0012
     32 C          59.7964   90.5430   10.2806 C.ar    1  UNL1       -0.0002
     33 C          59.3108   90.6538    8.8657 C.ar    1  UNL1        0.0016
     34 C          59.4649   89.4942    7.9268 C.ar    1  UNL1        0.0214
     35 C          59.0851   89.3109    6.4874 C.ar    1  UNL1        0.0721
     36 C          59.4902   87.9271    6.0737 C.ar    1  UNL1        0.0805
     37 N          60.1203   87.2553    7.2575 N.ar    1  UNL1       -0.3241
     38 C          60.6696   85.8599    7.2902 C.3     1  UNL1        0.1305
     39 C          60.1047   88.2237    8.4028 C.ar    1  UNL1        0.0577
     40 C          58.4174   90.3321    5.6147 C.2     1  UNL1        0.2506
     41 O          56.9258   90.4874    5.6484 O.2     1  UNL1       -0.2699
     42 N          59.2413   91.1980    4.7084 N.am    1  UNL1       -0.2732
     43 C          58.9424   92.2906    3.7251 C.3     1  UNL1        0.1114
     44 C          60.4066   92.4226    3.4267 C.3     1  UNL1        0.0976
     45 C          60.7055   91.3300    4.4100 C.3     1  UNL1        0.1114
     46 N          61.2305   93.2885    2.5205 N.3     1  UNL1       -0.2667
     47 C          62.5706   92.8128    2.0430 C.3     1  UNL1        0.1047
     48 C          63.3945   93.6788    1.1367 C.3     1  UNL1        0.1595
     49 O          62.8783   95.0203    0.7079 O.3     1  UNL1       -0.3508
     50 C          61.5382   95.4959    1.1853 C.3     1  UNL1        0.1595
     51 C          60.7143   94.6300    2.0916 C.3     1  UNL1        0.1047
     52 C          64.8401   93.1324   12.2052 C.3     1  UNL1        0.1177
     53 C          65.8796   93.5093   11.1915 C.ar    1  UNL1       -0.0025
     54 C          65.9874   94.9292   10.7202 C.ar    1  UNL1       -0.0026
     55 C          67.0268   95.3060    9.7065 C.ar    1  UNL1       -0.0003
     56 C          67.9585   94.2630    9.1642 C.ar    1  UNL1       -0.0000
     57 C          67.8507   92.8431    9.6356 C.ar    1  UNL1       -0.0003
     58 C          66.8112   92.4662   10.6493 C.ar    1  UNL1       -0.0026
@<TRIPOS>BOND
     1    18    19    2
     2    19    17    1
     3    17     1    1
     4     1     2    1
     5     2     3    1
     6     3     4    2
     7     3     5   am
     8     5     6    1
     9     6    20    1
    10    20    21    1
    11    21    22   ar
    12    22    23   ar
    13    23    24   ar
    14    24    25    1
    15    24    26   ar
    16    26    27   ar
    17     6     7    1
    18     7     8    2
    19     7     9   am
    20     9    29    1
    21    29    30    1
    22    30    31   ar
    23    31    32   ar
    24    32    33   ar
    25    33    34   ar
    26    34    35   ar
    27    35    40    1
    28    40    41    2
    29    40    42   am
    30    42    43    1
    31    43    44    1
    32    44    46    1
    33    46    47    1
    34    47    48    1
    35    48    49    1
    36    49    50    1
    37    50    51    1
    38    44    45    1
    39    35    36   ar
    40    36    37   ar
    41    37    38    1
    42    37    39   ar
    43     9    10    1
    44    11    10    1
    45    11    12    1
    46    12    13   am
    47    13    14    2
    48    13    15   am
    49    15    52    1
    50    52    53    1
    51    53    54   ar
    52    54    55   ar
    53    55    56   ar
    54    56    57   ar
    55    57    58   ar
    56    12     1    1
    57    58    53   ar
    58    11     5    1
    59    27    21   ar
    60    39    30   ar
    61    39    34   ar
    62    45    42    1
    63    51    46    1
    64    25    28    1
    65    15    16    1
