@<TRIPOS>MOLECULE
*****
 29 32 0 0 0
SMALL
GASTEIGER

@<TRIPOS>ATOM
      1 C          66.1185   93.9328   11.9403 C.2     1  UNL1        0.0918
      2 C          66.6497   94.3368   13.2836 C.2     1  UNL1        0.0183
      3 C          66.4363   93.4478   14.4728 C.2     1  UNL1        0.0511
      4 C          65.6918   92.1548   14.3186 C.2     1  UNL1        0.2322
      5 N          65.3299   91.0815   15.3020 N.2     1  UNL1       -0.0308
      6 C          64.5751   90.0142   14.5664 C.2     1  UNL1        0.3767
      7 N          64.4704   90.4278   13.1284 N.2     1  UNL1       -0.0346
      8 C          65.1606   91.7509   12.9753 C.2     1  UNL1        0.2191
      9 C          65.3739   92.6399   11.7861 C.3     1  UNL1        0.1226
     10 C          64.0220   88.7543   15.1640 C.ar    1  UNL1        0.1061
     11 C          63.4195   88.7774   16.5375 C.ar    1  UNL1        0.0141
     12 C          62.8664   87.5177   17.1351 C.ar    1  UNL1        0.0614
     13 C          62.9159   86.2349   16.3592 C.ar    1  UNL1        0.2648
     14 O          62.3628   84.9751   16.9568 O.2     1  UNL1       -0.2666
     15 N          63.5184   86.2119   14.9857 N.ar    1  UNL1       -0.2729
     16 C          64.0715   87.4716   14.3881 C.ar    1  UNL1        0.0906
     17 C          63.5679   84.9290   14.2099 C.ar    1  UNL1        0.0669
     18 C          64.3189   83.7509   14.7556 C.ar    1  UNL1        0.0176
     19 C          64.3683   82.4681   13.9798 C.ar    1  UNL1        0.0015
     20 C          63.6667   82.3635   12.6581 C.ar    1  UNL1        0.0001
     21 C          62.9157   83.5416   12.1123 C.ar    1  UNL1        0.0015
     22 C          62.8663   84.8244   12.8882 C.ar    1  UNL1        0.0176
     23 S          66.3318   94.8219   10.7511 S.O2    1  UNL1        0.0022
     24 O          66.5664   93.6154    9.8912 O.2     1  UNL1       -0.1690
     25 O          66.0972   96.0283   11.6110 O.2     1  UNL1       -0.1690
     26 C          67.6783   94.8371    9.1120 C.3     1  UNL1        0.0240
     27 C          66.5451   95.7109    9.5619 C.3     1  UNL1        0.1147
     28 C          65.4120   96.5847   10.0119 C.3     1  UNL1        0.0240
     29 C          66.7585   96.5999    8.3728 C.3     1  UNL1        0.0240
@<TRIPOS>BOND
     1    26    27    1
     2    27    28    1
     3    27    29    1
     4    27    23    1
     5    23    24    2
     6    23    25    2
     7    23     1    1
     8     1     2    2
     9     2     3    1
    10     3     4    2
    11     4     5    1
    12     5     6    2
    13     6    10    1
    14    10    11   ar
    15    11    12   ar
    16    12    13   ar
    17    13    14    2
    18    13    15   ar
    19    15    17    1
    20    17    18   ar
    21    18    19   ar
    22    19    20   ar
    23    20    21   ar
    24    21    22   ar
    25    15    16   ar
    26     6     7    1
    27     7     8    2
    28     8     9    1
    29     9     1    1
    30     8     4    1
    31    16    10   ar
    32    22    17   ar
@<TRIPOS>MOLECULE
*****
 29 32 0 0 0
SMALL
GASTEIGER

@<TRIPOS>ATOM
      1 C          62.5933   84.3567   12.6076 C.2     1  UNL1        0.0918
      2 C          61.8093   84.9961   11.5002 C.2     1  UNL1        0.0183
      3 C          61.9283   86.4705   11.2513 C.2     1  UNL1        0.0511
      4 C          62.8313   87.3055   12.1100 C.2     1  UNL1        0.2322
      5 N          63.1502   88.7712   12.1026 N.2     1  UNL1       -0.0308
      6 C          64.1313   89.0377   13.2055 C.2     1  UNL1        0.3767
      7 N          64.4188   87.7367   13.8946 N.2     1  UNL1       -0.0346
      8 C          63.6153   86.6661   13.2174 C.2     1  UNL1        0.2191
      9 C          63.4963   85.1917   13.4663 C.3     1  UNL1        0.1226
     10 C          64.7214   90.3711   13.5576 C.ar    1  UNL1        0.1061
     11 C          64.8158   90.7939   14.9937 C.ar    1  UNL1        0.0141
     12 C          65.4058   92.1272   15.3458 C.ar    1  UNL1        0.0614
     13 C          65.9014   93.0378   14.2618 C.ar    1  UNL1        0.2648
     14 O          66.4915   94.3712   14.6139 O.2     1  UNL1       -0.2666
     15 N          65.8071   92.6150   12.8257 N.ar    1  UNL1       -0.2729
     16 C          65.2170   91.2817   12.4736 C.ar    1  UNL1        0.0906
     17 C          66.3027   93.5257   11.7417 C.ar    1  UNL1        0.0669
     18 C          67.0501   92.9603   10.5705 C.ar    1  UNL1        0.0176
     19 C          67.5457   93.8709    9.4866 C.ar    1  UNL1        0.0015
     20 C          67.2940   95.3471    9.5738 C.ar    1  UNL1        0.0001
     21 C          66.5467   95.9126   10.7450 C.ar    1  UNL1        0.0015
     22 C          66.0510   95.0019   11.8289 C.ar    1  UNL1        0.0176
     23 S          62.4743   82.8823   12.8565 S.O2    1  UNL1        0.0022
     24 O          62.8128   82.6126   11.4203 O.2     1  UNL1       -0.1690
     25 O          62.1358   83.1520   14.2927 O.2     1  UNL1       -0.1690
     26 C          61.7515   81.6836   14.4504 C.3     1  UNL1        0.0240
     27 C          62.3553   81.4078   13.1053 C.3     1  UNL1        0.1147
     28 C          62.9592   81.1321   11.7602 C.3     1  UNL1        0.0240
     29 C          62.2363   79.9334   13.3541 C.3     1  UNL1        0.0240
@<TRIPOS>BOND
     1    26    27    1
     2    27    28    1
     3    27    29    1
     4    27    23    1
     5    23    24    2
     6    23    25    2
     7    23     1    1
     8     1     2    2
     9     2     3    1
    10     3     4    2
    11     4     5    1
    12     5     6    2
    13     6    10    1
    14    10    11   ar
    15    11    12   ar
    16    12    13   ar
    17    13    14    2
    18    13    15   ar
    19    15    17    1
    20    17    18   ar
    21    18    19   ar
    22    19    20   ar
    23    20    21   ar
    24    21    22   ar
    25    15    16   ar
    26     6     7    1
    27     7     8    2
    28     8     9    1
    29     9     1    1
    30     8     4    1
    31    16    10   ar
    32    22    17   ar
@<TRIPOS>MOLECULE
*****
 29 32 0 0 0
SMALL
GASTEIGER

@<TRIPOS>ATOM
      1 C          63.0088   84.2354   14.5237 C.2     1  UNL1        0.0918
      2 C          62.5989   84.5395   15.9341 C.2     1  UNL1        0.0183
      3 C          62.8363   85.9056   16.5062 C.2     1  UNL1        0.0511
      4 C          63.4837   86.9677   15.6678 C.2     1  UNL1        0.2322
      5 N          63.8429   88.3949   15.9574 N.2     1  UNL1       -0.0308
      6 C          64.4748   88.9730   14.7259 C.2     1  UNL1        0.3767
      7 N          64.5062   87.9029   13.6752 N.2     1  UNL1       -0.0346
      8 C          63.8936   86.6636   14.2574 C.2     1  UNL1        0.2191
      9 C          63.6562   85.2974   13.6853 C.3     1  UNL1        0.1226
     10 C          64.9857   90.3749   14.5722 C.ar    1  UNL1        0.1061
     11 C          64.9653   91.3131   15.7424 C.ar    1  UNL1        0.0141
     12 C          65.4762   92.7150   15.5888 C.ar    1  UNL1        0.0614
     13 C          66.0074   93.1787   14.2649 C.ar    1  UNL1        0.2648
     14 O          66.5183   94.5807   14.1111 O.2     1  UNL1       -0.2666
     15 N          66.0278   92.2406   13.0947 N.ar    1  UNL1       -0.2729
     16 C          65.5169   90.8387   13.2483 C.ar    1  UNL1        0.0906
     17 C          66.5590   92.7043   11.7707 C.ar    1  UNL1        0.0669
     18 C          65.9464   93.8932   11.0916 C.ar    1  UNL1        0.0176
     19 C          66.4776   94.3569    9.7677 C.ar    1  UNL1        0.0015
     20 C          67.6216   93.6318    9.1230 C.ar    1  UNL1        0.0001
     21 C          68.2342   92.4430    9.8021 C.ar    1  UNL1        0.0015
     22 C          67.7030   91.9792   11.1260 C.ar    1  UNL1        0.0176
     23 S          62.7714   82.8693   13.9516 S.O2    1  UNL1        0.0022
     24 O          62.8301   82.2816   15.3304 O.2     1  UNL1       -0.1690
     25 O          62.7126   83.4569   12.5727 O.2     1  UNL1       -0.1690
     26 C          63.7314   81.6670   12.4911 C.3     1  UNL1        0.0240
     27 C          62.5339   81.5031   13.3795 C.3     1  UNL1        0.1147
     28 C          61.3365   81.3392   14.2679 C.3     1  UNL1        0.0240
     29 C          62.2965   80.1370   12.8074 C.3     1  UNL1        0.0240
@<TRIPOS>BOND
     1    26    27    1
     2    27    28    1
     3    27    29    1
     4    27    23    1
     5    23    24    2
     6    23    25    2
     7    23     1    1
     8     1     2    2
     9     2     3    1
    10     3     4    2
    11     4     5    1
    12     5     6    2
    13     6    10    1
    14    10    11   ar
    15    11    12   ar
    16    12    13   ar
    17    13    14    2
    18    13    15   ar
    19    15    17    1
    20    17    18   ar
    21    18    19   ar
    22    19    20   ar
    23    20    21   ar
    24    21    22   ar
    25    15    16   ar
    26     6     7    1
    27     7     8    2
    28     8     9    1
    29     9     1    1
    30     8     4    1
    31    16    10   ar
    32    22    17   ar
@<TRIPOS>MOLECULE
*****
 29 32 0 0 0
SMALL
GASTEIGER

@<TRIPOS>ATOM
      1 C          63.3914   82.3553   12.8411 C.2     1  UNL1        0.0918
      2 C          63.6475   81.9328   14.2573 C.2     1  UNL1        0.0183
      3 C          63.8344   82.9679   15.3267 C.2     1  UNL1        0.0511
      4 C          63.7653   84.4256   14.9799 C.2     1  UNL1        0.2322
      5 N          63.9091   85.6638   15.8142 N.2     1  UNL1       -0.0308
      6 C          63.7419   86.8516   14.9136 C.2     1  UNL1        0.3767
      7 N          63.4948   86.3476   13.5226 N.2     1  UNL1       -0.0346
      8 C          63.5092   84.8481   13.5636 C.2     1  UNL1        0.2191
      9 C          63.3222   83.8130   12.4942 C.3     1  UNL1        0.1226
     10 C          63.8100   88.2909   15.3308 C.ar    1  UNL1        0.1061
     11 C          63.2434   88.7161   16.6530 C.ar    1  UNL1        0.0141
     12 C          63.3114   90.1552   17.0702 C.ar    1  UNL1        0.0614
     13 C          63.9460   91.1692   16.1652 C.ar    1  UNL1        0.2648
     14 O          64.0141   92.6085   16.5824 O.2     1  UNL1       -0.2666
     15 N          64.5126   90.7440   14.8430 N.ar    1  UNL1       -0.2729
     16 C          64.4446   89.3049   14.4258 C.ar    1  UNL1        0.0906
     17 C          65.1472   91.7581   13.9380 C.ar    1  UNL1        0.0669
     18 C          66.1916   92.6921   14.4737 C.ar    1  UNL1        0.0176
     19 C          66.8261   93.7061   13.5687 C.ar    1  UNL1        0.0015
     20 C          66.4163   93.7861   12.1280 C.ar    1  UNL1        0.0001
     21 C          65.3720   92.8522   11.5922 C.ar    1  UNL1        0.0015
     22 C          64.7374   91.8382   12.4972 C.ar    1  UNL1        0.0176
     23 S          63.2044   81.3202   11.7717 S.O2    1  UNL1        0.0022
     24 O          62.8109   80.3152   12.8133 O.2     1  UNL1       -0.1690
     25 O          63.5979   82.3253   10.7300 O.2     1  UNL1       -0.1690
     26 C          63.4924   81.2650    9.6707 C.3     1  UNL1        0.0240
     27 C          63.0174   80.2851   10.7023 C.3     1  UNL1        0.1147
     28 C          62.5424   79.3052   11.7339 C.3     1  UNL1        0.0240
     29 C          62.8304   79.2500    9.6329 C.3     1  UNL1        0.0240
@<TRIPOS>BOND
     1    26    27    1
     2    27    28    1
     3    27    29    1
     4    27    23    1
     5    23    24    2
     6    23    25    2
     7    23     1    1
     8     1     2    2
     9     2     3    1
    10     3     4    2
    11     4     5    1
    12     5     6    2
    13     6    10    1
    14    10    11   ar
    15    11    12   ar
    16    12    13   ar
    17    13    14    2
    18    13    15   ar
    19    15    17    1
    20    17    18   ar
    21    18    19   ar
    22    19    20   ar
    23    20    21   ar
    24    21    22   ar
    25    15    16   ar
    26     6     7    1
    27     7     8    2
    28     8     9    1
    29     9     1    1
    30     8     4    1
    31    16    10   ar
    32    22    17   ar
@<TRIPOS>MOLECULE
*****
 29 32 0 0 0
SMALL
GASTEIGER

@<TRIPOS>ATOM
      1 C          65.4363   93.2987   10.8729 C.2     1  UNL1        0.0918
      2 C          64.3285   92.7722   10.0095 C.2     1  UNL1        0.0183
      3 C          63.5264   91.5868   10.4585 C.2     1  UNL1        0.0511
      4 C          63.8322   90.9281   11.7710 C.2     1  UNL1        0.2322
      5 N          63.2173   89.7528   12.4714 N.2     1  UNL1       -0.0308
      6 C          63.9451   89.5529   13.7677 C.2     1  UNL1        0.3767
      7 N          65.0098   90.6048   13.8685 N.2     1  UNL1       -0.0346
      8 C          64.9399   91.4546   12.6344 C.2     1  UNL1        0.2191
      9 C          65.7420   92.6400   12.1853 C.3     1  UNL1        0.1226
     10 C          63.6585   88.4882   14.7847 C.ar    1  UNL1        0.1061
     11 C          63.3768   88.8673   16.2084 C.ar    1  UNL1        0.0141
     12 C          63.0902   87.8027   17.2254 C.ar    1  UNL1        0.0614
     13 C          63.0854   86.3589   16.8187 C.ar    1  UNL1        0.2648
     14 O          62.7988   85.2941   17.8358 O.2     1  UNL1       -0.2666
     15 N          63.3671   85.9798   15.3951 N.ar    1  UNL1       -0.2729
     16 C          63.6536   87.0444   14.3781 C.ar    1  UNL1        0.0906
     17 C          63.3622   84.5359   14.9884 C.ar    1  UNL1        0.0669
     18 C          62.0910   83.7424   15.0544 C.ar    1  UNL1        0.0176
     19 C          62.0861   82.2987   14.6477 C.ar    1  UNL1        0.0015
     20 C          63.3525   81.6483   14.1751 C.ar    1  UNL1        0.0001
     21 C          64.6237   82.4418   14.1090 C.ar    1  UNL1        0.0015
     22 C          64.6285   83.8856   14.5157 C.ar    1  UNL1        0.0176
     23 S          66.2384   94.4841   10.4239 S.O2    1  UNL1        0.0022
     24 O          67.4899   93.6593   10.4822 O.2     1  UNL1       -0.1690
     25 O          64.9868   95.3089   10.3655 O.2     1  UNL1       -0.1690
     26 C          66.4201   96.4999   11.0590 C.3     1  UNL1        0.0240
     27 C          67.0404   95.6694    9.9748 C.3     1  UNL1        0.1147
     28 C          67.6608   94.8390    8.8906 C.3     1  UNL1        0.0240
     29 C          67.8425   96.8548    9.5258 C.3     1  UNL1        0.0240
@<TRIPOS>BOND
     1    26    27    1
     2    27    28    1
     3    27    29    1
     4    27    23    1
     5    23    24    2
     6    23    25    2
     7    23     1    1
     8     1     2    2
     9     2     3    1
    10     3     4    2
    11     4     5    1
    12     5     6    2
    13     6    10    1
    14    10    11   ar
    15    11    12   ar
    16    12    13   ar
    17    13    14    2
    18    13    15   ar
    19    15    17    1
    20    17    18   ar
    21    18    19   ar
    22    19    20   ar
    23    20    21   ar
    24    21    22   ar
    25    15    16   ar
    26     6     7    1
    27     7     8    2
    28     8     9    1
    29     9     1    1
    30     8     4    1
    31    16    10   ar
    32    22    17   ar
@<TRIPOS>MOLECULE
*****
 29 32 0 0 0
SMALL
GASTEIGER

@<TRIPOS>ATOM
      1 C          65.0896   91.4500   14.1541 C.2     1  UNL1        0.0918
      2 C          64.2606   90.6769   15.1365 C.2     1  UNL1        0.0183
      3 C          63.1309   89.8173   14.6519 C.2     1  UNL1        0.0511
      4 C          62.8301   89.7308   13.1850 C.2     1  UNL1        0.2322
      5 N          61.7885   88.9724   12.4170 N.2     1  UNL1       -0.0308
      6 C          61.9737   89.2767   10.9599 C.2     1  UNL1        0.3767
      7 N          63.1298   90.2232   10.8273 N.2     1  UNL1       -0.0346
      8 C          63.6591   90.5038   12.2026 C.2     1  UNL1        0.2191
      9 C          64.7888   91.3634   12.6871 C.3     1  UNL1        0.1226
     10 C          61.1477   88.7304    9.8332 C.ar    1  UNL1        0.1061
     11 C          60.7760   87.2773    9.8117 C.ar    1  UNL1        0.0141
     12 C          59.9501   86.7310    8.6851 C.ar    1  UNL1        0.0614
     13 C          59.4959   87.6377    7.5799 C.ar    1  UNL1        0.2648
     14 O          58.6700   87.0914    6.4531 O.2     1  UNL1       -0.2666
     15 N          59.8677   89.0908    7.6013 N.ar    1  UNL1       -0.2729
     16 C          60.6935   89.6371    8.7280 C.ar    1  UNL1        0.0906
     17 C          59.4134   89.9976    6.4961 C.ar    1  UNL1        0.0669
     18 C          57.9485   90.2220    6.2644 C.ar    1  UNL1        0.0176
     19 C          57.4944   91.1287    5.1591 C.ar    1  UNL1        0.0015
     20 C          58.5051   91.8110    4.2856 C.ar    1  UNL1        0.0001
     21 C          59.9699   91.5865    4.5173 C.ar    1  UNL1        0.0015
     22 C          60.4241   90.6798    5.6225 C.ar    1  UNL1        0.0176
     23 S          66.2193   92.3096   14.6386 S.O2    1  UNL1        0.0022
     24 O          65.4258   92.6632   15.8614 O.2     1  UNL1       -0.1690
     25 O          67.0128   91.9560   13.4158 O.2     1  UNL1       -0.1690
     26 C          66.9518   94.2396   14.1503 C.3     1  UNL1        0.0240
     27 C          67.3490   93.1692   15.1231 C.3     1  UNL1        0.1147
     28 C          67.7462   92.0988   16.0960 C.3     1  UNL1        0.0240
     29 C          68.4788   94.0288   15.6077 C.3     1  UNL1        0.0240
@<TRIPOS>BOND
     1    26    27    1
     2    27    28    1
     3    27    29    1
     4    27    23    1
     5    23    24    2
     6    23    25    2
     7    23     1    1
     8     1     2    2
     9     2     3    1
    10     3     4    2
    11     4     5    1
    12     5     6    2
    13     6    10    1
    14    10    11   ar
    15    11    12   ar
    16    12    13   ar
    17    13    14    2
    18    13    15   ar
    19    15    17    1
    20    17    18   ar
    21    18    19   ar
    22    19    20   ar
    23    20    21   ar
    24    21    22   ar
    25    15    16   ar
    26     6     7    1
    27     7     8    2
    28     8     9    1
    29     9     1    1
    30     8     4    1
    31    16    10   ar
    32    22    17   ar
@<TRIPOS>MOLECULE
*****
 29 32 0 0 0
SMALL
GASTEIGER

@<TRIPOS>ATOM
      1 C          62.8807   83.4964   11.9525 C.2     1  UNL1        0.0918
      2 C          62.4608   84.3394   10.7850 C.2     1  UNL1        0.0183
      3 C          62.5131   85.8353   10.8828 C.2     1  UNL1        0.0511
      4 C          62.9853   86.4882   12.1479 C.2     1  UNL1        0.2322
      5 N          63.1436   87.9286   12.5356 N.2     1  UNL1       -0.0308
      6 C          63.6613   87.9758   13.9426 C.2     1  UNL1        0.3767
      7 N          63.8230   86.5646   14.4246 N.2     1  UNL1       -0.0346
      8 C          63.4052   85.6452   13.3154 C.2     1  UNL1        0.2191
      9 C          63.3529   84.1493   13.2177 C.3     1  UNL1        0.1226
     10 C          63.9641   89.2164   14.7295 C.ar    1  UNL1        0.1061
     11 C          62.9429   89.7709   15.6780 C.ar    1  UNL1        0.0141
     12 C          63.2456   91.0115   16.4649 C.ar    1  UNL1        0.0614
     13 C          64.5697   91.6976   16.3033 C.ar    1  UNL1        0.2648
     14 O          64.8725   92.9383   17.0902 O.2     1  UNL1       -0.2666
     15 N          65.5909   91.1431   15.3548 N.ar    1  UNL1       -0.2729
     16 C          65.2881   89.9025   14.5680 C.ar    1  UNL1        0.0906
     17 C          66.9150   91.8293   15.1933 C.ar    1  UNL1        0.0669
     18 C          67.7088   91.6408   13.9346 C.ar    1  UNL1        0.0176
     19 C          69.0328   92.3269   13.7731 C.ar    1  UNL1        0.0015
     20 C          69.5630   93.2016   14.8702 C.ar    1  UNL1        0.0001
     21 C          68.7692   93.3902   16.1289 C.ar    1  UNL1        0.0015
     22 C          67.4452   92.7040   16.2904 C.ar    1  UNL1        0.0176
     23 S          62.8284   82.0005   11.8547 S.O2    1  UNL1        0.0022
     24 O          63.6563   82.0532   10.6051 O.2     1  UNL1       -0.1690
     25 O          62.0004   81.9478   13.1044 O.2     1  UNL1       -0.1690
     26 C          62.4238   80.4218   13.2127 C.3     1  UNL1        0.0240
     27 C          62.7761   80.5046   11.7570 C.3     1  UNL1        0.1147
     28 C          63.1284   80.5874   10.3013 C.3     1  UNL1        0.0240
     29 C          62.7238   79.0087   11.6593 C.3     1  UNL1        0.0240
@<TRIPOS>BOND
     1    26    27    1
     2    27    28    1
     3    27    29    1
     4    27    23    1
     5    23    24    2
     6    23    25    2
     7    23     1    1
     8     1     2    2
     9     2     3    1
    10     3     4    2
    11     4     5    1
    12     5     6    2
    13     6    10    1
    14    10    11   ar
    15    11    12   ar
    16    12    13   ar
    17    13    14    2
    18    13    15   ar
    19    15    17    1
    20    17    18   ar
    21    18    19   ar
    22    19    20   ar
    23    20    21   ar
    24    21    22   ar
    25    15    16   ar
    26     6     7    1
    27     7     8    2
    28     8     9    1
    29     9     1    1
    30     8     4    1
    31    16    10   ar
    32    22    17   ar
