@<TRIPOS>MOLECULE
*****
 32 35 0 0 0
SMALL
GASTEIGER

@<TRIPOS>ATOM
      1 N          63.8065   89.1780   13.5156 N.ar    1  UNL1       -0.3246
      2 C          63.8228   90.5543   12.9194 C.ar    1  UNL1        0.0339
      3 C          64.2349   91.8144   13.6212 C.3     1  UNL1        0.0497
      4 C          63.3549   90.4493   11.4981 C.ar    1  UNL1       -0.0086
      5 C          63.2167   91.5860   10.5291 C.3     1  UNL1        0.0322
      6 C          63.0492   89.0082   11.2159 C.ar    1  UNL1        0.0187
      7 C          62.5529   88.3098    9.9847 C.ar    1  UNL1        0.0388
      8 C          62.3356   86.8258   10.0004 C.ar    1  UNL1        0.1515
      9 N          62.6147   86.0400   11.2473 N.ar    1  UNL1       -0.2119
     10 C          63.1111   86.7384   12.4785 C.ar    1  UNL1        0.1462
     11 C          63.3283   88.2224   12.4628 C.ar    1  UNL1        0.0915
     12 N          61.8392   86.1273    8.7692 N.ar    1  UNL1       -0.2577
     13 C          62.7695   85.2633    7.9705 C.ar    1  UNL1        0.0844
     14 C          62.2732   84.5649    6.7393 C.ar    1  UNL1        0.0193
     15 C          60.8465   84.7305    6.3068 C.ar    1  UNL1        0.0064
     16 C          59.9161   85.5946    7.1054 C.ar    1  UNL1        0.0612
     17 C          60.4125   86.2930    8.3367 C.ar    1  UNL1        0.2659
     18 O          59.4822   87.1571    9.1353 O.2     1  UNL1       -0.2666
     19 N          63.3902   85.9526   13.7254 N.pl3   1  UNL1       -0.3133
     20 H          63.0648   86.2783   14.5956 H       1  UNL1        0.1485
     21 C          64.1651   84.6707   13.6464 C.3     1  UNL1        0.1148
     22 C          63.4429   83.3670   13.4767 C.ar    1  UNL1       -0.0105
     23 C          63.6436   82.5550   12.2316 C.ar    1  UNL1       -0.0245
     24 C          64.5665   83.0466   11.1562 C.3     1  UNL1        0.0307
     25 C          62.9214   81.2513   12.0619 C.ar    1  UNL1       -0.0045
     26 C          61.9986   80.7596   13.1374 C.ar    1  UNL1       -0.0007
     27 C          61.7979   81.5716   14.3825 C.ar    1  UNL1       -0.0045
     28 C          62.5201   82.8754   14.5522 C.ar    1  UNL1       -0.0245
     29 C          62.3194   83.6874   15.7972 C.3     1  UNL1        0.0307
     30 C          64.1992   88.8201   14.9183 C.3     1  UNL1        0.1322
     31 C          63.0061   88.1651   17.1314 C.2     1  UNL1       -0.0029
     32 C          63.2987   89.1772   16.0636 C.2     1  UNL1       -0.0018
@<TRIPOS>BOND
     1    31    32    2
     2    32    30    1
     3    30     1    1
     4     1     2   ar
     5     2     3    1
     6     2     4   ar
     7     4     5    1
     8     4     6   ar
     9     6     7   ar
    10     7     8   ar
    11     8    12    1
    12    12    13   ar
    13    13    14   ar
    14    14    15   ar
    15    15    16   ar
    16    16    17   ar
    17    17    18    2
    18     8     9   ar
    19     9    10   ar
    20    10    19    1
    21    19    21    1
    22    21    22    1
    23    22    23   ar
    24    23    24    1
    25    23    25   ar
    26    25    26   ar
    27    26    27   ar
    28    27    28   ar
    29    28    29    1
    30    10    11   ar
    31    11     1   ar
    32    11     6   ar
    33    17    12   ar
    34    28    22   ar
    35    19    20    1
@<TRIPOS>MOLECULE
*****
 32 35 0 0 0
SMALL
GASTEIGER

@<TRIPOS>ATOM
      1 N          63.8367   89.1086   13.7230 N.ar    1  UNL1       -0.3246
      2 C          63.8393   90.5004   13.1638 C.ar    1  UNL1        0.0339
      3 C          64.2445   91.7446   13.8971 C.3     1  UNL1        0.0497
      4 C          63.3654   90.4296   11.7423 C.ar    1  UNL1       -0.0086
      5 C          63.2135   91.5906   10.8047 C.3     1  UNL1        0.0322
      6 C          63.0699   88.9940   11.4231 C.ar    1  UNL1        0.0187
      7 C          62.5733   88.3248   10.1760 C.ar    1  UNL1        0.0388
      8 C          62.3680   86.8392   10.1530 C.ar    1  UNL1        0.1515
      9 N          62.6593   86.0227   11.3771 N.ar    1  UNL1       -0.2119
     10 C          63.1559   86.6919   12.6243 C.ar    1  UNL1        0.1462
     11 C          63.3612   88.1776   12.6473 C.ar    1  UNL1        0.0915
     12 N          61.8713   86.1699    8.9058 N.ar    1  UNL1       -0.2577
     13 C          62.8026   85.3282    8.0845 C.ar    1  UNL1        0.0844
     14 C          62.3060   84.6590    6.8374 C.ar    1  UNL1        0.0193
     15 C          60.8781   84.8313    6.4114 C.ar    1  UNL1        0.0064
     16 C          59.9468   85.6729    7.2326 C.ar    1  UNL1        0.0612
     17 C          60.4435   86.3422    8.4798 C.ar    1  UNL1        0.2659
     18 O          59.5122   87.1838    9.3010 O.2     1  UNL1       -0.2666
     19 N          63.4473   85.8755   13.8484 N.pl3   1  UNL1       -0.3133
     20 H          63.1521   86.1918   14.7328 H       1  UNL1        0.1485
     21 C          64.1882   84.5771   13.7252 C.3     1  UNL1        0.1148
     22 C          63.4301   83.2947   13.5496 C.ar    1  UNL1       -0.0105
     23 C          62.5029   82.8179   14.6281 C.ar    1  UNL1       -0.0245
     24 C          62.3338   83.6235   15.8820 C.3     1  UNL1        0.0307
     25 C          61.7449   81.5355   14.4526 C.ar    1  UNL1       -0.0045
     26 C          61.9141   80.7299   13.1986 C.ar    1  UNL1       -0.0007
     27 C          62.8412   81.2067   12.1202 C.ar    1  UNL1       -0.0045
     28 C          63.5993   82.4891   12.2957 C.ar    1  UNL1       -0.0245
     29 C          64.5264   82.9659   11.2173 C.3     1  UNL1        0.0307
     30 C          64.2390   88.7165   15.1139 C.3     1  UNL1        0.1322
     31 C          62.8978   87.7643   17.1251 C.2     1  UNL1       -0.0029
     32 C          63.2884   88.9227   16.2558 C.2     1  UNL1       -0.0018
@<TRIPOS>BOND
     1    31    32    2
     2    32    30    1
     3    30     1    1
     4     1     2   ar
     5     2     3    1
     6     2     4   ar
     7     4     5    1
     8     4     6   ar
     9     6     7   ar
    10     7     8   ar
    11     8    12    1
    12    12    13   ar
    13    13    14   ar
    14    14    15   ar
    15    15    16   ar
    16    16    17   ar
    17    17    18    2
    18     8     9   ar
    19     9    10   ar
    20    10    19    1
    21    19    21    1
    22    21    22    1
    23    22    23   ar
    24    23    24    1
    25    23    25   ar
    26    25    26   ar
    27    26    27   ar
    28    27    28   ar
    29    28    29    1
    30    10    11   ar
    31    11     1   ar
    32    11     6   ar
    33    17    12   ar
    34    28    22   ar
    35    19    20    1
@<TRIPOS>MOLECULE
*****
 32 35 0 0 0
SMALL
GASTEIGER

@<TRIPOS>ATOM
      1 N          61.6300   89.0986   10.3972 N.ar    1  UNL1       -0.3246
      2 C          60.7386   88.7846    9.2324 C.ar    1  UNL1        0.0339
      3 C          60.1142   89.7847    8.3051 C.3     1  UNL1        0.0497
      4 C          60.5811   87.2947    9.1578 C.ar    1  UNL1       -0.0086
      5 C          59.7716   86.5434    8.1427 C.3     1  UNL1        0.0322
      6 C          61.3752   86.6880   10.2764 C.ar    1  UNL1        0.0187
      7 C          61.5918   85.2644   10.6964 C.ar    1  UNL1        0.0388
      8 C          62.4566   84.9558   11.8825 C.ar    1  UNL1        0.1515
      9 N          63.1049   86.0707   12.6485 N.ar    1  UNL1       -0.2119
     10 C          62.8883   87.4942   12.2284 C.ar    1  UNL1        0.1462
     11 C          62.0235   87.8029   11.0424 C.ar    1  UNL1        0.0915
     12 N          62.6732   83.5321   12.3026 N.ar    1  UNL1       -0.2577
     13 C          62.2151   83.0711   13.6545 C.ar    1  UNL1        0.0844
     14 C          62.4316   81.6476   14.0746 C.ar    1  UNL1        0.0193
     15 C          63.1063   80.6849   13.1428 C.ar    1  UNL1        0.0064
     16 C          63.5644   81.1459   11.7909 C.ar    1  UNL1        0.0612
     17 C          63.3478   82.5695   11.3708 C.ar    1  UNL1        0.2659
     18 O          63.8059   83.0305   10.0189 O.2     1  UNL1       -0.2666
     19 N          63.5366   88.6091   12.9944 N.pl3   1  UNL1       -0.3133
     20 H          63.3485   89.5453   12.7549 H       1  UNL1        0.1485
     21 C          64.4715   88.2976   14.1253 C.3     1  UNL1        0.1148
     22 C          63.9437   87.6802   15.3864 C.ar    1  UNL1       -0.0105
     23 C          64.1442   86.2164   15.6457 C.ar    1  UNL1       -0.0245
     24 C          64.8724   85.3701   14.6441 C.3     1  UNL1        0.0307
     25 C          63.6164   85.5990   16.9068 C.ar    1  UNL1       -0.0045
     26 C          62.8881   86.4454   17.9085 C.ar    1  UNL1       -0.0007
     27 C          62.6877   87.9091   17.6491 C.ar    1  UNL1       -0.0045
     28 C          63.2154   88.5265   16.3880 C.ar    1  UNL1       -0.0245
     29 C          63.0150   89.9902   16.1286 C.3     1  UNL1        0.0307
     30 C          62.0537   90.4680   10.8391 C.3     1  UNL1        0.1322
     31 C          64.3023   91.7687   10.8853 C.2     1  UNL1       -0.0029
     32 C          63.1565   91.1821   10.1152 C.2     1  UNL1       -0.0018
@<TRIPOS>BOND
     1    31    32    2
     2    32    30    1
     3    30     1    1
     4     1     2   ar
     5     2     3    1
     6     2     4   ar
     7     4     5    1
     8     4     6   ar
     9     6     7   ar
    10     7     8   ar
    11     8    12    1
    12    12    13   ar
    13    13    14   ar
    14    14    15   ar
    15    15    16   ar
    16    16    17   ar
    17    17    18    2
    18     8     9   ar
    19     9    10   ar
    20    10    19    1
    21    19    21    1
    22    21    22    1
    23    22    23   ar
    24    23    24    1
    25    23    25   ar
    26    25    26   ar
    27    26    27   ar
    28    27    28   ar
    29    28    29    1
    30    10    11   ar
    31    11     1   ar
    32    11     6   ar
    33    17    12   ar
    34    28    22   ar
    35    19    20    1
@<TRIPOS>MOLECULE
*****
 32 35 0 0 0
SMALL
GASTEIGER

@<TRIPOS>ATOM
      1 N          60.8704   88.9660    9.7066 N.ar    1  UNL1       -0.3246
      2 C          60.2165   88.3232    8.5195 C.ar    1  UNL1        0.0339
      3 C          59.4507   89.0334    7.4427 C.3     1  UNL1        0.0497
      4 C          60.4627   86.8457    8.5982 C.ar    1  UNL1       -0.0086
      5 C          59.9865   85.8188    7.6139 C.3     1  UNL1        0.0322
      6 C          61.2689   86.5752    9.8339 C.ar    1  UNL1        0.0187
      7 C          61.8060   85.3050   10.4238 C.ar    1  UNL1        0.0388
      8 C          62.5951   85.3453   11.6988 C.ar    1  UNL1        0.1515
      9 N          62.8471   86.6557   12.3838 N.ar    1  UNL1       -0.2119
     10 C          62.3100   87.9259   11.7939 C.ar    1  UNL1        0.1462
     11 C          61.5208   87.8857   10.5189 C.ar    1  UNL1        0.0915
     12 N          63.1323   84.0750   12.2888 N.ar    1  UNL1       -0.2577
     13 C          63.9729   83.1564   11.4524 C.ar    1  UNL1        0.0844
     14 C          64.5101   81.8862   12.0423 C.ar    1  UNL1        0.0193
     15 C          64.2067   81.5346   13.4687 C.ar    1  UNL1        0.0064
     16 C          63.3662   82.4533   14.3050 C.ar    1  UNL1        0.0612
     17 C          62.8290   83.7235   13.7151 C.ar    1  UNL1        0.2659
     18 O          61.9884   84.6422   14.5514 O.2     1  UNL1       -0.2666
     19 N          62.5620   89.2363   12.4790 N.pl3   1  UNL1       -0.3133
     20 H          62.1066   89.4442   13.3267 H       1  UNL1        0.1485
     21 C          63.5077   90.2300   11.8724 C.3     1  UNL1        0.1148
     22 C          64.4244   91.0269   12.7526 C.ar    1  UNL1       -0.0105
     23 C          64.6200   90.6305   14.1860 C.ar    1  UNL1       -0.0245
     24 C          63.8989   89.4372   14.7392 C.3     1  UNL1        0.0307
     25 C          65.5367   91.4273   15.0662 C.ar    1  UNL1       -0.0045
     26 C          66.2578   92.6207   14.5129 C.ar    1  UNL1       -0.0007
     27 C          66.0622   93.0171   13.0795 C.ar    1  UNL1       -0.0045
     28 C          65.1455   92.2202   12.1994 C.ar    1  UNL1       -0.0245
     29 C          64.9499   92.6166   10.7660 C.3     1  UNL1        0.0307
     30 C          60.8735   90.4317   10.0254 C.3     1  UNL1        0.1322
     31 C          59.1223   90.0424   11.9048 C.2     1  UNL1       -0.0029
     32 C          59.9229   90.9786   11.0488 C.2     1  UNL1       -0.0018
@<TRIPOS>BOND
     1    31    32    2
     2    32    30    1
     3    30     1    1
     4     1     2   ar
     5     2     3    1
     6     2     4   ar
     7     4     5    1
     8     4     6   ar
     9     6     7   ar
    10     7     8   ar
    11     8    12    1
    12    12    13   ar
    13    13    14   ar
    14    14    15   ar
    15    15    16   ar
    16    16    17   ar
    17    17    18    2
    18     8     9   ar
    19     9    10   ar
    20    10    19    1
    21    19    21    1
    22    21    22    1
    23    22    23   ar
    24    23    24    1
    25    23    25   ar
    26    25    26   ar
    27    26    27   ar
    28    27    28   ar
    29    28    29    1
    30    10    11   ar
    31    11     1   ar
    32    11     6   ar
    33    17    12   ar
    34    28    22   ar
    35    19    20    1
@<TRIPOS>MOLECULE
*****
 32 35 0 0 0
SMALL
GASTEIGER

@<TRIPOS>ATOM
      1 N          60.9050   88.9368    9.6885 N.ar    1  UNL1       -0.3246
      2 C          60.2478   88.3101    8.4947 C.ar    1  UNL1        0.0339
      3 C          59.5047   89.0380    7.4139 C.3     1  UNL1        0.0497
      4 C          60.4643   86.8278    8.5713 C.ar    1  UNL1       -0.0086
      5 C          59.9756   85.8130    7.5806 C.3     1  UNL1        0.0322
      6 C          61.2552   86.5384    9.8125 C.ar    1  UNL1        0.0187
      7 C          61.7626   85.2564   10.4032 C.ar    1  UNL1        0.0388
      8 C          62.5423   85.2778   11.6844 C.ar    1  UNL1        0.1515
      9 N          62.8147   86.5813   12.3749 N.ar    1  UNL1       -0.2119
     10 C          62.3073   87.8633   11.7842 C.ar    1  UNL1        0.1462
     11 C          61.5276   87.8418   10.5030 C.ar    1  UNL1        0.0915
     12 N          63.0497   83.9957   12.2752 N.ar    1  UNL1       -0.2577
     13 C          62.6844   83.6215   13.6810 C.ar    1  UNL1        0.0844
     14 C          63.1918   82.3395   14.2718 C.ar    1  UNL1        0.0193
     15 C          64.0645   81.4317   13.4567 C.ar    1  UNL1        0.0064
     16 C          64.4298   81.8059   12.0508 C.ar    1  UNL1        0.0612
     17 C          63.9224   83.0880   11.4600 C.ar    1  UNL1        0.2659
     18 O          64.2877   83.4623   10.0542 O.2     1  UNL1       -0.2666
     19 N          62.5797   89.1667   12.4748 N.pl3   1  UNL1       -0.3133
     20 H          62.1346   89.3742   13.3280 H       1  UNL1        0.1485
     21 C          63.5302   90.1541   11.8652 C.3     1  UNL1        0.1148
     22 C          64.4327   90.9677   12.7448 C.ar    1  UNL1       -0.0105
     23 C          65.1165   92.1849   12.1963 C.ar    1  UNL1       -0.0245
     24 C          64.8979   92.5885   10.7682 C.3     1  UNL1        0.0307
     25 C          66.0190   92.9985   13.0758 C.ar    1  UNL1       -0.0045
     26 C          66.2376   92.5949   14.5039 C.ar    1  UNL1       -0.0007
     27 C          65.5537   91.3778   15.0524 C.ar    1  UNL1       -0.0045
     28 C          64.6513   90.5642   14.1728 C.ar    1  UNL1       -0.0245
     29 C          63.9674   89.3470   14.7213 C.3     1  UNL1        0.0307
     30 C          60.9344   90.4014   10.0113 C.3     1  UNL1        0.1322
     31 C          59.1476   90.0394   11.8625 C.2     1  UNL1       -0.0029
     32 C          59.9952   90.9622   11.0378 C.2     1  UNL1       -0.0018
@<TRIPOS>BOND
     1    31    32    2
     2    32    30    1
     3    30     1    1
     4     1     2   ar
     5     2     3    1
     6     2     4   ar
     7     4     5    1
     8     4     6   ar
     9     6     7   ar
    10     7     8   ar
    11     8    12    1
    12    12    13   ar
    13    13    14   ar
    14    14    15   ar
    15    15    16   ar
    16    16    17   ar
    17    17    18    2
    18     8     9   ar
    19     9    10   ar
    20    10    19    1
    21    19    21    1
    22    21    22    1
    23    22    23   ar
    24    23    24    1
    25    23    25   ar
    26    25    26   ar
    27    26    27   ar
    28    27    28   ar
    29    28    29    1
    30    10    11   ar
    31    11     1   ar
    32    11     6   ar
    33    17    12   ar
    34    28    22   ar
    35    19    20    1
@<TRIPOS>MOLECULE
*****
 32 35 0 0 0
SMALL
GASTEIGER

@<TRIPOS>ATOM
      1 N          63.9179   85.6142   13.9809 N.ar    1  UNL1       -0.3246
      2 C          63.7351   84.1309   13.8537 C.ar    1  UNL1        0.0339
      3 C          64.3093   83.0900   14.7685 C.3     1  UNL1        0.0497
      4 C          62.8772   83.8711   12.6510 C.ar    1  UNL1       -0.0086
      5 C          62.4428   82.5249   12.1520 C.3     1  UNL1        0.0322
      6 C          62.5298   85.1939   12.0349 C.ar    1  UNL1        0.0187
      7 C          61.7109   85.5566   10.8317 C.ar    1  UNL1        0.0388
      8 C          61.5352   86.9966   10.4504 C.ar    1  UNL1        0.1515
      9 N          62.1784   88.0739   11.2724 N.ar    1  UNL1       -0.2119
     10 C          62.9973   87.7112   12.4756 C.ar    1  UNL1        0.1462
     11 C          63.1730   86.2712   12.8569 C.ar    1  UNL1        0.0915
     12 N          60.7162   87.3593    9.2471 N.ar    1  UNL1       -0.2577
     13 C          60.3367   86.3030    8.2521 C.ar    1  UNL1        0.0844
     14 C          59.5178   86.6657    7.0488 C.ar    1  UNL1        0.0193
     15 C          59.0784   88.0848    6.8406 C.ar    1  UNL1        0.0064
     16 C          59.4579   89.1411    7.8357 C.ar    1  UNL1        0.0612
     17 C          60.2769   88.7783    9.0390 C.ar    1  UNL1        0.2659
     18 O          60.6564   89.8346   10.0340 O.2     1  UNL1       -0.2666
     19 N          63.6405   88.7886   13.2975 N.pl3   1  UNL1       -0.3133
     20 H          64.3106   88.5536   13.9795 H       1  UNL1        0.1485
     21 C          63.2629   90.2239   13.0805 C.3     1  UNL1        0.1148
     22 C          64.3063   91.2201   12.6694 C.ar    1  UNL1       -0.0105
     23 C          64.3398   91.7327   11.2601 C.ar    1  UNL1       -0.0245
     24 C          63.3301   91.2491   10.2619 C.3     1  UNL1        0.0307
     25 C          65.3832   92.7288   10.8490 C.ar    1  UNL1       -0.0045
     26 C          66.3931   93.2124   11.8473 C.ar    1  UNL1       -0.0007
     27 C          66.3594   92.6998   13.2566 C.ar    1  UNL1       -0.0045
     28 C          65.3160   91.7036   13.6676 C.ar    1  UNL1       -0.0245
     29 C          65.2824   91.1910   15.0769 C.3     1  UNL1        0.0307
     30 C          64.7071   86.3172   15.0453 C.3     1  UNL1        0.1322
     31 C          63.0035   86.1520   17.0001 C.2     1  UNL1       -0.0029
     32 C          64.0014   86.9460   16.2102 C.2     1  UNL1       -0.0018
@<TRIPOS>BOND
     1    31    32    2
     2    32    30    1
     3    30     1    1
     4     1     2   ar
     5     2     3    1
     6     2     4   ar
     7     4     5    1
     8     4     6   ar
     9     6     7   ar
    10     7     8   ar
    11     8    12    1
    12    12    13   ar
    13    13    14   ar
    14    14    15   ar
    15    15    16   ar
    16    16    17   ar
    17    17    18    2
    18     8     9   ar
    19     9    10   ar
    20    10    19    1
    21    19    21    1
    22    21    22    1
    23    22    23   ar
    24    23    24    1
    25    23    25   ar
    26    25    26   ar
    27    26    27   ar
    28    27    28   ar
    29    28    29    1
    30    10    11   ar
    31    11     1   ar
    32    11     6   ar
    33    17    12   ar
    34    28    22   ar
    35    19    20    1
@<TRIPOS>MOLECULE
*****
 32 35 0 0 0
SMALL
GASTEIGER

@<TRIPOS>ATOM
      1 N          61.9702   87.6651   11.1808 N.ar    1  UNL1       -0.3246
      2 C          61.6625   88.6724   10.1127 C.ar    1  UNL1        0.0339
      3 C          60.7781   88.4519    8.9214 C.3     1  UNL1        0.0497
      4 C          62.3944   89.9387   10.4451 C.ar    1  UNL1       -0.0086
      5 C          62.3704   91.2070    9.6446 C.3     1  UNL1        0.0322
      6 C          63.1545   89.7142   11.7186 C.ar    1  UNL1        0.0187
      7 C          64.0515   90.6077   12.5230 C.ar    1  UNL1        0.0388
      8 C          64.6863   90.0961   13.7820 C.ar    1  UNL1        0.1515
      9 N          64.4241   88.6909   14.2367 N.ar    1  UNL1       -0.2119
     10 C          63.5271   87.7974   13.4323 C.ar    1  UNL1        0.1462
     11 C          62.8923   88.3090   12.1733 C.ar    1  UNL1        0.0915
     12 N          65.5833   90.9896   14.5864 N.ar    1  UNL1       -0.2577
     13 C          67.0301   91.1294   14.2162 C.ar    1  UNL1        0.0844
     14 C          67.9271   92.0229   15.0206 C.ar    1  UNL1        0.0193
     15 C          67.3773   92.7766   16.1952 C.ar    1  UNL1        0.0064
     16 C          65.9304   92.6368   16.5654 C.ar    1  UNL1        0.0612
     17 C          65.0334   91.7432   15.7610 C.ar    1  UNL1        0.2659
     18 O          63.5866   91.6034   16.1312 O.2     1  UNL1       -0.2666
     19 N          63.2650   86.3922   13.8870 N.pl3   1  UNL1       -0.3133
     20 H          62.5804   86.2162   14.5723 H       1  UNL1        0.1485
     21 C          64.0458   85.2552   13.2975 C.3     1  UNL1        0.1148
     22 C          63.4621   83.8735   13.2810 C.ar    1  UNL1       -0.0105
     23 C          63.7399   82.9557   12.1274 C.ar    1  UNL1       -0.0245
     24 C          64.6014   83.4197   10.9905 C.3     1  UNL1        0.0307
     25 C          63.1563   81.5741   12.1108 C.ar    1  UNL1       -0.0045
     26 C          62.2947   81.1101   13.2478 C.ar    1  UNL1       -0.0007
     27 C          62.0169   82.0279   14.4013 C.ar    1  UNL1       -0.0045
     28 C          62.6006   83.4096   14.4178 C.ar    1  UNL1       -0.0245
     29 C          62.3228   84.3273   15.5713 C.3     1  UNL1        0.0307
     30 C          61.4476   86.2606   11.2451 C.3     1  UNL1        0.1322
     31 C          62.7583   85.6158    9.0964 C.2     1  UNL1       -0.0029
     32 C          61.6858   85.3186   10.1022 C.2     1  UNL1       -0.0018
@<TRIPOS>BOND
     1    31    32    2
     2    32    30    1
     3    30     1    1
     4     1     2   ar
     5     2     3    1
     6     2     4   ar
     7     4     5    1
     8     4     6   ar
     9     6     7   ar
    10     7     8   ar
    11     8    12    1
    12    12    13   ar
    13    13    14   ar
    14    14    15   ar
    15    15    16   ar
    16    16    17   ar
    17    17    18    2
    18     8     9   ar
    19     9    10   ar
    20    10    19    1
    21    19    21    1
    22    21    22    1
    23    22    23   ar
    24    23    24    1
    25    23    25   ar
    26    25    26   ar
    27    26    27   ar
    28    27    28   ar
    29    28    29    1
    30    10    11   ar
    31    11     1   ar
    32    11     6   ar
    33    17    12   ar
    34    28    22   ar
    35    19    20    1
@<TRIPOS>MOLECULE
*****
 32 35 0 0 0
SMALL
GASTEIGER

@<TRIPOS>ATOM
      1 N          61.9796   87.6248   11.1866 N.ar    1  UNL1       -0.3246
      2 C          61.6681   88.6313   10.1190 C.ar    1  UNL1        0.0339
      3 C          60.7863   88.4074    8.9263 C.3     1  UNL1        0.0497
      4 C          62.3931   89.9012   10.4534 C.ar    1  UNL1       -0.0086
      5 C          62.3637   91.1700    9.6539 C.3     1  UNL1        0.0322
      6 C          63.1527   89.6794   11.7277 C.ar    1  UNL1        0.0187
      7 C          64.0441   90.5768   12.5340 C.ar    1  UNL1        0.0388
      8 C          64.6799   90.0673   13.7934 C.ar    1  UNL1        0.1515
      9 N          64.4243   88.6604   14.2465 N.ar    1  UNL1       -0.2119
     10 C          63.5330   87.7630   13.4402 C.ar    1  UNL1        0.1462
     11 C          62.8972   88.2725   12.1808 C.ar    1  UNL1        0.0915
     12 N          65.5713   90.9647   14.5997 N.ar    1  UNL1       -0.2577
     13 C          67.0240   91.0911   14.2482 C.ar    1  UNL1        0.0844
     14 C          67.9154   91.9885   15.0545 C.ar    1  UNL1        0.0193
     15 C          67.3541   92.7595   16.2123 C.ar    1  UNL1        0.0064
     16 C          65.9013   92.6331   16.5638 C.ar    1  UNL1        0.0612
     17 C          65.0099   91.7357   15.7575 C.ar    1  UNL1        0.2659
     18 O          63.5572   91.6093   16.1090 O.2     1  UNL1       -0.2666
     19 N          63.2774   86.3561   13.8934 N.pl3   1  UNL1       -0.3133
     20 H          62.6014   86.1773   14.5864 H       1  UNL1        0.1485
     21 C          64.0518   85.2217   13.2906 C.3     1  UNL1        0.1148
     22 C          63.4687   83.8398   13.2759 C.ar    1  UNL1       -0.0105
     23 C          62.6036   83.3787   14.4113 C.ar    1  UNL1       -0.0245
     24 C          62.3215   84.2995   15.5612 C.3     1  UNL1        0.0307
     25 C          62.0205   81.9967   14.3966 C.ar    1  UNL1       -0.0045
     26 C          62.3026   81.0759   13.2465 C.ar    1  UNL1       -0.0007
     27 C          63.1677   81.5370   12.1112 C.ar    1  UNL1       -0.0045
     28 C          63.7508   82.9189   12.1260 C.ar    1  UNL1       -0.0245
     29 C          64.6159   83.3800   10.9907 C.3     1  UNL1        0.0307
     30 C          61.4641   86.2175   11.2490 C.3     1  UNL1        0.1322
     31 C          62.7678   85.6205    9.0824 C.2     1  UNL1       -0.0029
     32 C          61.7578   85.2609   10.1315 C.2     1  UNL1       -0.0018
@<TRIPOS>BOND
     1    31    32    2
     2    32    30    1
     3    30     1    1
     4     1     2   ar
     5     2     3    1
     6     2     4   ar
     7     4     5    1
     8     4     6   ar
     9     6     7   ar
    10     7     8   ar
    11     8    12    1
    12    12    13   ar
    13    13    14   ar
    14    14    15   ar
    15    15    16   ar
    16    16    17   ar
    17    17    18    2
    18     8     9   ar
    19     9    10   ar
    20    10    19    1
    21    19    21    1
    22    21    22    1
    23    22    23   ar
    24    23    24    1
    25    23    25   ar
    26    25    26   ar
    27    26    27   ar
    28    27    28   ar
    29    28    29    1
    30    10    11   ar
    31    11     1   ar
    32    11     6   ar
    33    17    12   ar
    34    28    22   ar
    35    19    20    1
@<TRIPOS>MOLECULE
*****
 32 35 0 0 0
SMALL
GASTEIGER

@<TRIPOS>ATOM
      1 N          61.3047   86.9185    9.9018 N.ar    1  UNL1       -0.3246
      2 C          60.4081   87.9626    9.3052 C.ar    1  UNL1        0.0339
      3 C          59.4704   87.7648    8.1513 C.3     1  UNL1        0.0497
      4 C          60.6139   89.2393   10.0652 C.ar    1  UNL1       -0.0086
      5 C          59.9181   90.5424    9.8047 C.3     1  UNL1        0.0322
      6 C          61.6377   88.9843   11.1315 C.ar    1  UNL1        0.0187
      7 C          62.2362   89.8728   12.1813 C.ar    1  UNL1        0.0388
      8 C          63.2617   89.3269   13.1301 C.ar    1  UNL1        0.1515
      9 N          63.6887   87.8925   13.0291 N.ar    1  UNL1       -0.2119
     10 C          63.0901   87.0040   11.9793 C.ar    1  UNL1        0.1462
     11 C          62.0646   87.5499   11.0305 C.ar    1  UNL1        0.0915
     12 N          63.8604   90.2154   14.1800 N.ar    1  UNL1       -0.2577
     13 C          65.0641   91.0507   13.8584 C.ar    1  UNL1        0.0844
     14 C          65.6627   91.9392   14.9082 C.ar    1  UNL1        0.0193
     15 C          65.0576   91.9925   16.2797 C.ar    1  UNL1        0.0064
     16 C          63.8539   91.1573   16.6014 C.ar    1  UNL1        0.0612
     17 C          63.2553   90.2687   15.5515 C.ar    1  UNL1        0.2659
     18 O          62.0516   89.4335   15.8731 O.2     1  UNL1       -0.2666
     19 N          63.5171   85.5696   11.8782 N.pl3   1  UNL1       -0.3133
     20 H          63.6722   85.1632   10.9950 H       1  UNL1        0.1485
     21 C          63.7078   84.7544   13.1228 C.3     1  UNL1        0.1148
     22 C          63.1649   83.3579   13.1952 C.ar    1  UNL1       -0.0105
     23 C          63.4499   82.3842   12.0903 C.ar    1  UNL1       -0.0245
     24 C          64.2776   82.8070   10.9130 C.3     1  UNL1        0.0307
     25 C          62.9070   80.9878   12.1627 C.ar    1  UNL1       -0.0045
     26 C          62.0792   80.5651   13.3401 C.ar    1  UNL1       -0.0007
     27 C          61.7942   81.5387   14.4449 C.ar    1  UNL1       -0.0045
     28 C          62.3371   82.9352   14.3725 C.ar    1  UNL1       -0.0245
     29 C          62.0522   83.9088   15.4773 C.3     1  UNL1        0.0307
     30 C          61.4210   85.4931    9.4491 C.3     1  UNL1        0.1322
     31 C          62.2489   84.9082    7.0568 C.2     1  UNL1       -0.0029
     32 C          62.5271   85.0892    8.5197 C.2     1  UNL1       -0.0018
@<TRIPOS>BOND
     1    31    32    2
     2    32    30    1
     3    30     1    1
     4     1     2   ar
     5     2     3    1
     6     2     4   ar
     7     4     5    1
     8     4     6   ar
     9     6     7   ar
    10     7     8   ar
    11     8    12    1
    12    12    13   ar
    13    13    14   ar
    14    14    15   ar
    15    15    16   ar
    16    16    17   ar
    17    17    18    2
    18     8     9   ar
    19     9    10   ar
    20    10    19    1
    21    19    21    1
    22    21    22    1
    23    22    23   ar
    24    23    24    1
    25    23    25   ar
    26    25    26   ar
    27    26    27   ar
    28    27    28   ar
    29    28    29    1
    30    10    11   ar
    31    11     1   ar
    32    11     6   ar
    33    17    12   ar
    34    28    22   ar
    35    19    20    1
