@<TRIPOS>MOLECULE
*****
 42 45 0 0 0
SMALL
GASTEIGER

@<TRIPOS>ATOM
      1 C          60.0379   92.7286   -0.2593 C.3     1  UNL1        0.1678
      2 C          61.4134   92.7766   -0.8556 C.2     1  UNL1        0.2492
      3 O          61.8547   92.4645   -0.2698 O.2     1  UNL1       -0.2727
      4 N          61.8308   93.2834   -2.2043 N.am    1  UNL1       -0.2517
      5 C          60.9759   93.8672   -3.2898 C.ar    1  UNL1        0.0679
      6 C          61.7952   94.2505   -4.4863 C.ar    1  UNL1        0.0162
      7 C          61.1310   94.8550   -5.6877 C.ar    1  UNL1        0.0014
      8 C          59.6475   95.0763   -5.6925 C.ar    1  UNL1        0.0014
      9 C          58.8281   94.6930   -4.4960 C.ar    1  UNL1        0.0162
     10 C          59.4923   94.0885   -3.2946 C.ar    1  UNL1        0.0676
     11 N          58.4973   93.7806   -2.2151 N.am    1  UNL1       -0.2556
     12 C          57.0709   94.1233   -2.5279 C.2     1  UNL1        0.2535
     13 O          55.9961   93.8557   -1.5163 O.2     1  UNL1       -0.2726
     14 C          58.7400   93.1754   -0.8643 C.3     1  UNL1        0.1067
     15 C          57.5243   92.9929   -0.0049 C.3     1  UNL1        0.0242
     16 C          60.0103   93.0677    2.3164 C.2     1  UNL1        0.2371
     17 O          60.1619   94.5475    2.1232 O.2     1  UNL1       -0.2737
     18 N          59.9483   92.1583    1.1252 N.am    1  UNL1       -0.2959
     19 H          59.8488   91.1871    1.2520 H       1  UNL1        0.1499
     20 C          59.9208   92.4974    3.7009 C.3     1  UNL1        0.1316
     21 C          61.0417   91.6595    4.2408 C.3     1  UNL1        0.0270
     22 C          57.7504   91.6545    4.8537 C.3     1  UNL1        0.0862
     23 N          58.7104   92.7651    4.5454 N.3     1  UNL1       -0.2902
     24 H          59.0482   93.1192    5.4403 H       1  UNL1        0.1237
     25 C          63.2971   93.1945   -2.5077 C.3     1  UNL1        0.1278
     26 C          64.0453   94.4144   -2.9574 C.ar    1  UNL1        0.0320
     27 C          64.0859   95.6335   -2.0845 C.ar    1  UNL1        0.1363
     28 C          64.8340   96.8534   -2.5342 C.ar    1  UNL1        0.0366
     29 C          65.5414   96.8542   -3.8569 C.ar    1  UNL1        0.0031
     30 C          65.5007   95.6351   -4.7298 C.ar    1  UNL1       -0.0001
     31 C          66.2082   95.6358   -6.0525 C.ar    1  UNL1       -0.0000
     32 C          66.1675   94.4167   -6.9256 C.ar    1  UNL1       -0.0000
     33 C          65.4194   93.1969   -6.4758 C.ar    1  UNL1       -0.0000
     34 C          64.7120   93.1960   -5.1531 C.ar    1  UNL1       -0.0002
     35 C          64.7527   94.4152   -4.2802 C.ar    1  UNL1        0.0006
     36 O          63.3785   95.6328   -0.7618 O.3     1  UNL1       -0.4717
     37 C          62.1850   96.5162   -0.5490 C.3     1  UNL1        0.2525
     38 C          56.7191   94.7335   -3.8524 C.3     1  UNL1        0.2357
     39 S          55.5256   95.6344   -3.9697 S.O2    1  UNL1        0.0007
     40 C          54.3321   96.5353   -4.0871 C.3     1  UNL1        0.1766
     41 O          56.1548   96.5937   -3.0033 O.2     1  UNL1       -0.1725
     42 O          54.8965   94.6751   -4.9361 O.2     1  UNL1       -0.1725
@<TRIPOS>BOND
     1    22    23    1
     2    23    20    1
     3    20    21    1
     4    20    16    1
     5    16    17    2
     6    16    18   am
     7     1    18    1
     8     1     2    1
     9     2     3    2
    10     2     4   am
    11     4    25    1
    12    25    26    1
    13    26    27   ar
    14    27    36    1
    15    36    37    1
    16    27    28   ar
    17    28    29   ar
    18    29    30   ar
    19    30    31   ar
    20    31    32   ar
    21    32    33   ar
    22    33    34   ar
    23    34    35   ar
    24     4     5    1
    25     5     6   ar
    26     6     7   ar
    27     7     8   ar
    28     8     9   ar
    29     9    10   ar
    30    10    11    1
    31    11    12   am
    32    12    13    2
    33    12    38    1
    34    38    39    1
    35    39    40    1
    36    39    41    2
    37    39    42    2
    38    11    14    1
    39    14    15    1
    40    14     1    1
    41    35    26   ar
    42    10     5   ar
    43    35    30   ar
    44    23    24    1
    45    18    19    1
@<TRIPOS>MOLECULE
*****
 42 45 0 0 0
SMALL
GASTEIGER

@<TRIPOS>ATOM
      1 C          61.9701   95.1824   -4.8755 C.3     1  UNL1        0.1678
      2 C          62.1919   95.6284   -3.4606 C.2     1  UNL1        0.2492
      3 O          62.9487   95.8773   -3.4862 O.2     1  UNL1       -0.2727
      4 N          61.2290   95.6047   -2.3108 N.am    1  UNL1       -0.2517
      5 C          59.8065   95.1291   -2.2917 C.ar    1  UNL1        0.0679
      6 C          59.1964   95.2802   -0.9297 C.ar    1  UNL1        0.0162
      7 C          57.7753   94.8619   -0.6940 C.ar    1  UNL1        0.0014
      8 C          56.9644   94.2926   -1.8201 C.ar    1  UNL1        0.0014
      9 C          57.5745   94.1416   -3.1821 C.ar    1  UNL1        0.0162
     10 C          58.9955   94.5598   -3.4178 C.ar    1  UNL1        0.0676
     11 N          59.4068   94.3255   -4.8412 N.am    1  UNL1       -0.2556
     12 C          58.3552   93.7361   -5.7339 C.2     1  UNL1        0.2535
     13 O          58.6633   93.4620   -7.1761 O.2     1  UNL1       -0.2726
     14 C          60.7306   94.6025   -5.4900 C.3     1  UNL1        0.1067
     15 C          60.8277   94.2536   -6.9456 C.3     1  UNL1        0.0242
     16 C          64.1014   94.1989   -5.9891 C.2     1  UNL1        0.2371
     17 O          63.8873   92.9069   -5.2578 O.2     1  UNL1       -0.2737
     18 N          63.1428   95.3367   -5.7980 N.am    1  UNL1       -0.2959
     19 H          63.2833   96.1847   -6.2780 H       1  UNL1        0.1499
     20 C          65.2741   94.3532   -6.9116 C.3     1  UNL1        0.1316
     21 C          65.9087   93.1413   -7.5271 C.3     1  UNL1        0.0270
     22 C          66.6684   96.4313   -6.2137 C.3     1  UNL1        0.0862
     23 N          65.8122   95.7192   -7.2186 N.3     1  UNL1       -0.2902
     24 H          66.3675   95.6325   -8.0698 H       1  UNL1        0.1237
     25 C          61.7587   96.1254   -1.0076 C.3     1  UNL1        0.1278
     26 C          62.8649   95.3974   -0.3030 C.ar    1  UNL1        0.0320
     27 C          64.2946   95.7579   -0.5786 C.ar    1  UNL1        0.1363
     28 C          65.4008   95.0300    0.1259 C.ar    1  UNL1        0.0366
     29 C          65.0774   93.9415    1.1060 C.ar    1  UNL1        0.0031
     30 C          63.6477   93.5810    1.3815 C.ar    1  UNL1       -0.0001
     31 C          63.3242   92.4925    2.3616 C.ar    1  UNL1       -0.0000
     32 C          61.8945   92.1319    2.6373 C.ar    1  UNL1       -0.0000
     33 C          60.7883   92.8599    1.9328 C.ar    1  UNL1       -0.0000
     34 C          61.1117   93.9484    0.9527 C.ar    1  UNL1       -0.0002
     35 C          62.5414   94.3089    0.6771 C.ar    1  UNL1        0.0006
     36 O          64.6181   96.8464   -1.5587 O.3     1  UNL1       -0.4717
     37 C          65.9442   96.8546   -2.2598 C.3     1  UNL1        0.2525
     38 C          56.9955   93.4209   -5.1843 C.3     1  UNL1        0.2357
     39 S          56.1614   92.3468   -5.8172 S.O2    1  UNL1        0.0007
     40 C          55.3273   91.2728   -6.4501 C.3     1  UNL1        0.1766
     41 O          56.9778   91.3007   -5.1178 O.2     1  UNL1       -0.1725
     42 O          55.3451   93.3930   -6.5166 O.2     1  UNL1       -0.1725
@<TRIPOS>BOND
     1    22    23    1
     2    23    20    1
     3    20    21    1
     4    20    16    1
     5    16    17    2
     6    16    18   am
     7     1    18    1
     8     1     2    1
     9     2     3    2
    10     2     4   am
    11     4    25    1
    12    25    26    1
    13    26    27   ar
    14    27    36    1
    15    36    37    1
    16    27    28   ar
    17    28    29   ar
    18    29    30   ar
    19    30    31   ar
    20    31    32   ar
    21    32    33   ar
    22    33    34   ar
    23    34    35   ar
    24     4     5    1
    25     5     6   ar
    26     6     7   ar
    27     7     8   ar
    28     8     9   ar
    29     9    10   ar
    30    10    11    1
    31    11    12   am
    32    12    13    2
    33    12    38    1
    34    38    39    1
    35    39    40    1
    36    39    41    2
    37    39    42    2
    38    11    14    1
    39    14    15    1
    40    14     1    1
    41    35    26   ar
    42    10     5   ar
    43    35    30   ar
    44    23    24    1
    45    18    19    1
@<TRIPOS>MOLECULE
*****
 42 45 0 0 0
SMALL
GASTEIGER

@<TRIPOS>ATOM
      1 C          62.0081   89.1515    9.8218 C.3     1  UNL1        0.1678
      2 C          61.7042   87.7207   10.1541 C.2     1  UNL1        0.2492
      3 O          61.2594   87.5007    9.5303 O.2     1  UNL1       -0.2727
      4 N          62.1337   86.9275   11.3525 N.am    1  UNL1       -0.2517
      5 C          62.9732   87.3689   12.5146 C.ar    1  UNL1        0.0679
      6 C          63.1681   86.2579   13.5033 C.ar    1  UNL1        0.0162
      7 C          63.9803   86.4908   14.7427 C.ar    1  UNL1        0.0014
      8 C          64.5976   87.8347   14.9933 C.ar    1  UNL1        0.0014
      9 C          64.4028   88.9457   14.0045 C.ar    1  UNL1        0.0162
     10 C          63.5906   88.7128   12.7652 C.ar    1  UNL1        0.0676
     11 N          63.5209   89.9471   11.9156 N.am    1  UNL1       -0.2556
     12 C          64.2521   91.1445   12.4462 C.2     1  UNL1        0.2535
     13 O          64.2458   92.4303   11.6737 O.2     1  UNL1       -0.2726
     14 C          62.8166   90.1424   10.6057 C.3     1  UNL1        0.1067
     15 C          62.9368   91.5092    9.9996 C.3     1  UNL1        0.0242
     16 C          60.0292   89.2800    8.1433 C.2     1  UNL1        0.2371
     17 O          59.2131   88.3944    9.0377 O.2     1  UNL1       -0.2737
     18 N          61.4267   89.6585    8.5354 N.am    1  UNL1       -0.2959
     19 H          61.9623   90.2397    7.9484 H       1  UNL1        0.1499
     20 C          59.4478   89.7870    6.8569 C.3     1  UNL1        0.1316
     21 C          58.0124   89.5088    6.5215 C.3     1  UNL1        0.0270
     22 C          59.6605   91.4316    4.8569 C.3     1  UNL1        0.0862
     23 N          60.3016   90.5721    5.9058 N.3     1  UNL1       -0.2902
     24 H          60.8859   91.1863    6.4731 H       1  UNL1        0.1237
     25 C          61.6612   85.5044   11.3945 C.3     1  UNL1        0.1278
     26 C          62.6322   84.3846   11.1633 C.ar    1  UNL1        0.0320
     27 C          63.4093   84.3183    9.8821 C.ar    1  UNL1        0.1363
     28 C          64.3802   83.1986    9.6509 C.ar    1  UNL1        0.0366
     29 C          64.5740   82.1452   10.7010 C.ar    1  UNL1        0.0031
     30 C          63.7969   82.2115   11.9822 C.ar    1  UNL1       -0.0001
     31 C          63.9906   81.1580   13.0323 C.ar    1  UNL1       -0.0000
     32 C          63.2135   81.2243   14.3136 C.ar    1  UNL1       -0.0000
     33 C          62.2426   82.3440   14.5447 C.ar    1  UNL1       -0.0000
     34 C          62.0487   83.3975   13.4947 C.ar    1  UNL1       -0.0002
     35 C          62.8259   83.3312   12.2134 C.ar    1  UNL1        0.0006
     36 O          63.2155   85.3718    8.8320 O.3     1  UNL1       -0.4717
     37 C          62.6847   84.9950    7.4806 C.3     1  UNL1        0.2525
     38 C          64.9897   91.0562   13.7494 C.3     1  UNL1        0.2357
     39 S          65.9284   92.1534   14.1557 S.O2    1  UNL1        0.0007
     40 C          66.8671   93.2505   14.5619 C.3     1  UNL1        0.1766
     41 O          65.0446   92.4769   15.3238 O.2     1  UNL1       -0.1725
     42 O          66.8121   91.8298   12.9877 O.2     1  UNL1       -0.1725
@<TRIPOS>BOND
     1    22    23    1
     2    23    20    1
     3    20    21    1
     4    20    16    1
     5    16    17    2
     6    16    18   am
     7     1    18    1
     8     1     2    1
     9     2     3    2
    10     2     4   am
    11     4    25    1
    12    25    26    1
    13    26    27   ar
    14    27    36    1
    15    36    37    1
    16    27    28   ar
    17    28    29   ar
    18    29    30   ar
    19    30    31   ar
    20    31    32   ar
    21    32    33   ar
    22    33    34   ar
    23    34    35   ar
    24     4     5    1
    25     5     6   ar
    26     6     7   ar
    27     7     8   ar
    28     8     9   ar
    29     9    10   ar
    30    10    11    1
    31    11    12   am
    32    12    13    2
    33    12    38    1
    34    38    39    1
    35    39    40    1
    36    39    41    2
    37    39    42    2
    38    11    14    1
    39    14    15    1
    40    14     1    1
    41    35    26   ar
    42    10     5   ar
    43    35    30   ar
    44    23    24    1
    45    18    19    1
@<TRIPOS>MOLECULE
*****
 42 45 0 0 0
SMALL
GASTEIGER

@<TRIPOS>ATOM
      1 C          63.6681   89.8031   11.8429 C.3     1  UNL1        0.1678
      2 C          64.1003   89.0898   13.0897 C.2     1  UNL1        0.2492
      3 O          63.7024   88.4018   13.0287 O.2     1  UNL1       -0.2727
      4 N          65.0377   89.5632   14.1607 N.am    1  UNL1       -0.2517
      5 C          65.7744   90.8669   14.2496 C.ar    1  UNL1        0.0679
      6 C          66.6127   90.9390   15.4914 C.ar    1  UNL1        0.0162
      7 C          67.4322   92.1634   15.7728 C.ar    1  UNL1        0.0014
      8 C          67.4134   93.3156   14.8126 C.ar    1  UNL1        0.0014
      9 C          66.5751   93.2434   13.5709 C.ar    1  UNL1        0.0162
     10 C          65.7555   92.0191   13.2894 C.ar    1  UNL1        0.0676
     11 N          64.9954   92.1521   12.0031 N.am    1  UNL1       -0.2556
     12 C          65.1901   93.4420   11.2626 C.2     1  UNL1        0.2535
     13 O          64.4756   93.6770    9.9648 O.2     1  UNL1       -0.2726
     14 C          64.0664   91.1660   11.3593 C.3     1  UNL1        0.1067
     15 C          63.4549   91.6001   10.0603 C.3     1  UNL1        0.0242
     16 C          61.2408   89.3428   11.0389 C.2     1  UNL1        0.2371
     17 O          60.7279   90.3798   11.9938 O.2     1  UNL1       -0.2737
     18 N          62.7109   89.0545   10.9635 N.am    1  UNL1       -0.2959
     19 H          63.0475   88.3740   10.3368 H       1  UNL1        0.1499
     20 C          60.2836   88.5943   10.1595 C.3     1  UNL1        0.1316
     21 C          59.6500   89.2806    8.9857 C.3     1  UNL1        0.0270
     22 C          60.9444   86.0822   10.1066 C.3     1  UNL1        0.0862
     23 N          59.9600   87.1595   10.4537 N.3     1  UNL1       -0.2902
     24 H          59.7949   87.0949   11.4582 H       1  UNL1        0.1237
     25 C          65.2691   88.6065   15.2926 C.3     1  UNL1        0.1278
     26 C          64.1354   87.7747   15.8151 C.ar    1  UNL1        0.0320
     27 C          63.1256   88.3816   16.7434 C.ar    1  UNL1        0.1363
     28 C          61.9920   87.5498   17.2660 C.ar    1  UNL1        0.0366
     29 C          61.8683   86.1111   16.8602 C.ar    1  UNL1        0.0031
     30 C          62.8781   85.5042   15.9319 C.ar    1  UNL1       -0.0001
     31 C          62.7543   84.0654   15.5261 C.ar    1  UNL1       -0.0000
     32 C          63.7642   83.4584   14.5978 C.ar    1  UNL1       -0.0000
     33 C          64.8978   84.2902   14.0753 C.ar    1  UNL1       -0.0000
     34 C          65.0216   85.7290   14.4810 C.ar    1  UNL1       -0.0002
     35 C          64.0117   86.3359   15.4094 C.ar    1  UNL1        0.0006
     36 O          63.2493   89.8204   17.1492 O.3     1  UNL1       -0.4717
     37 C          62.9543   90.9072   16.1583 C.3     1  UNL1        0.2525
     38 C          66.0992   94.4970   11.8199 C.3     1  UNL1        0.2357
     39 S          66.5441   95.6378   10.9534 S.O2    1  UNL1        0.0007
     40 C          66.9889   96.7785   10.0870 C.3     1  UNL1        0.1766
     41 O          67.4775   94.7186   10.2227 O.2     1  UNL1       -0.1725
     42 O          65.6107   96.5568   11.6842 O.2     1  UNL1       -0.1725
@<TRIPOS>BOND
     1    22    23    1
     2    23    20    1
     3    20    21    1
     4    20    16    1
     5    16    17    2
     6    16    18   am
     7     1    18    1
     8     1     2    1
     9     2     3    2
    10     2     4   am
    11     4    25    1
    12    25    26    1
    13    26    27   ar
    14    27    36    1
    15    36    37    1
    16    27    28   ar
    17    28    29   ar
    18    29    30   ar
    19    30    31   ar
    20    31    32   ar
    21    32    33   ar
    22    33    34   ar
    23    34    35   ar
    24     4     5    1
    25     5     6   ar
    26     6     7   ar
    27     7     8   ar
    28     8     9   ar
    29     9    10   ar
    30    10    11    1
    31    11    12   am
    32    12    13    2
    33    12    38    1
    34    38    39    1
    35    39    40    1
    36    39    41    2
    37    39    42    2
    38    11    14    1
    39    14    15    1
    40    14     1    1
    41    35    26   ar
    42    10     5   ar
    43    35    30   ar
    44    23    24    1
    45    18    19    1
@<TRIPOS>MOLECULE
*****
 42 45 0 0 0
SMALL
GASTEIGER

@<TRIPOS>ATOM
      1 C          62.1966   87.8068   10.5135 C.3     1  UNL1        0.1678
      2 C          62.4909   89.0215   11.3429 C.2     1  UNL1        0.2492
      3 O          62.2437   89.6085   10.8636 O.2     1  UNL1       -0.2727
      4 N          63.0935   89.0937   12.7147 N.am    1  UNL1       -0.2517
      5 C          63.5506   87.9691   13.5958 C.ar    1  UNL1        0.0679
      6 C          64.0957   88.4790   14.8968 C.ar    1  UNL1        0.0162
      7 C          64.6082   87.5144   15.9248 C.ar    1  UNL1        0.0014
      8 C          64.5756   86.0399   15.6518 C.ar    1  UNL1        0.0014
      9 C          64.0305   85.5299   14.3507 C.ar    1  UNL1        0.0162
     10 C          63.5180   86.4945   13.3228 C.ar    1  UNL1        0.0676
     11 N          63.0202   85.7804   12.1011 N.am    1  UNL1       -0.2556
     12 C          63.1243   84.2844   12.1342 C.2     1  UNL1        0.2535
     13 O          62.6545   83.4738   10.9627 O.2     1  UNL1       -0.2726
     14 C          62.4321   86.3643   10.8509 C.3     1  UNL1        0.1067
     15 C          62.0259   85.3752    9.7990 C.3     1  UNL1        0.0242
     16 C          60.1072   88.2893    9.0466 C.2     1  UNL1        0.2371
     17 O          59.2391   88.2468   10.2691 O.2     1  UNL1       -0.2737
     18 N          61.5859   88.0693    9.1688 N.am    1  UNL1       -0.2959
     19 H          62.1557   88.0972    8.3664 H       1  UNL1        0.1499
     20 C          59.4966   88.5518    7.7019 C.3     1  UNL1        0.1316
     21 C          58.6380   87.5078    7.0514 C.3     1  UNL1        0.0270
     22 C          58.8991   90.2562    5.8343 C.3     1  UNL1        0.0862
     23 N          59.7445   89.8581    7.0077 N.3     1  UNL1       -0.2902
     24 H          59.6366   90.5899    7.7100 H       1  UNL1        0.1237
     25 C          63.2611   90.4729   13.2801 C.3     1  UNL1        0.1278
     26 C          64.4794   91.2795   12.9409 C.ar    1  UNL1        0.0320
     27 C          64.8360   91.5322   11.5060 C.ar    1  UNL1        0.1363
     28 C          66.0543   92.3389   11.1667 C.ar    1  UNL1        0.0366
     29 C          66.9160   92.8928   12.2624 C.ar    1  UNL1        0.0031
     30 C          66.5594   92.6402   13.6973 C.ar    1  UNL1       -0.0001
     31 C          67.4212   93.1941   14.7930 C.ar    1  UNL1       -0.0000
     32 C          67.0646   92.9415   16.2280 C.ar    1  UNL1       -0.0000
     33 C          65.8463   92.1348   16.5671 C.ar    1  UNL1       -0.0000
     34 C          64.9846   91.5808   15.4715 C.ar    1  UNL1       -0.0002
     35 C          65.3412   91.8335   14.0366 C.ar    1  UNL1        0.0006
     36 O          63.9743   90.9783   10.4103 O.3     1  UNL1       -0.4717
     37 C          63.1298   91.9002    9.5815 C.3     1  UNL1        0.2525
     38 C          63.6982   83.5988   13.3387 C.3     1  UNL1        0.2357
     39 S          63.3820   82.1565   13.6024 S.O2    1  UNL1        0.0007
     40 C          63.0658   80.7141   13.8661 C.3     1  UNL1        0.1766
     41 O          62.1771   82.5659   14.3966 O.2     1  UNL1       -0.1725
     42 O          64.5868   81.7471   12.8082 O.2     1  UNL1       -0.1725
@<TRIPOS>BOND
     1    22    23    1
     2    23    20    1
     3    20    21    1
     4    20    16    1
     5    16    17    2
     6    16    18   am
     7     1    18    1
     8     1     2    1
     9     2     3    2
    10     2     4   am
    11     4    25    1
    12    25    26    1
    13    26    27   ar
    14    27    36    1
    15    36    37    1
    16    27    28   ar
    17    28    29   ar
    18    29    30   ar
    19    30    31   ar
    20    31    32   ar
    21    32    33   ar
    22    33    34   ar
    23    34    35   ar
    24     4     5    1
    25     5     6   ar
    26     6     7   ar
    27     7     8   ar
    28     8     9   ar
    29     9    10   ar
    30    10    11    1
    31    11    12   am
    32    12    13    2
    33    12    38    1
    34    38    39    1
    35    39    40    1
    36    39    41    2
    37    39    42    2
    38    11    14    1
    39    14    15    1
    40    14     1    1
    41    35    26   ar
    42    10     5   ar
    43    35    30   ar
    44    23    24    1
    45    18    19    1
@<TRIPOS>MOLECULE
*****
 42 45 0 0 0
SMALL
GASTEIGER

@<TRIPOS>ATOM
      1 C          62.1928   88.1302   10.4802 C.3     1  UNL1        0.1678
      2 C          62.4517   89.2860   11.4006 C.2     1  UNL1        0.2492
      3 O          62.2003   89.9019   10.9615 O.2     1  UNL1       -0.2727
      4 N          63.0328   89.2684   12.7833 N.am    1  UNL1       -0.2517
      5 C          63.4986   88.0908   13.5873 C.ar    1  UNL1        0.0679
      6 C          64.0149   88.5139   14.9305 C.ar    1  UNL1        0.0162
      7 C          64.5309   87.4860   15.8934 C.ar    1  UNL1        0.0014
      8 C          64.5305   86.0350   15.5131 C.ar    1  UNL1        0.0014
      9 C          64.0142   85.6119   14.1698 C.ar    1  UNL1        0.0162
     10 C          63.4982   86.6398   13.2069 C.ar    1  UNL1        0.0676
     11 N          63.0320   86.0081   11.9288 N.am    1  UNL1       -0.2556
     12 C          63.1643   84.5158   11.8543 C.2     1  UNL1        0.2535
     13 O          62.7271   83.7848   10.6195 O.2     1  UNL1       -0.2726
     14 C          62.4510   86.6713   10.7153 C.3     1  UNL1        0.1067
     15 C          62.0791   85.7547    9.5878 C.3     1  UNL1        0.0242
     16 C          60.1206   88.3333    8.9263 C.2     1  UNL1        0.2371
     17 O          59.2403   87.8381   10.0354 O.2     1  UNL1       -0.2737
     18 N          61.5968   88.4793    9.1487 N.am    1  UNL1       -0.2959
     19 H          62.1745   88.8043    8.4208 H       1  UNL1        0.1499
     20 C          59.5246   88.6825    7.5948 C.3     1  UNL1        0.1316
     21 C          58.7199   87.6640    6.8430 C.3     1  UNL1        0.0270
     22 C          59.0878   90.4189    5.7123 C.3     1  UNL1        0.0862
     23 N          59.7333   90.0501    7.0151 N.3     1  UNL1       -0.2902
     24 H          59.3985   90.7183    7.7092 H       1  UNL1        0.1237
     25 C          63.1658   90.6053   13.4504 C.3     1  UNL1        0.1278
     26 C          64.5186   91.2343   13.6067 C.ar    1  UNL1        0.0320
     27 C          65.1808   91.2644   14.9522 C.ar    1  UNL1        0.1363
     28 C          66.5336   91.8933   15.1085 C.ar    1  UNL1        0.0366
     29 C          67.2241   92.4922   13.9192 C.ar    1  UNL1        0.0031
     30 C          66.5619   92.4621   12.5737 C.ar    1  UNL1       -0.0001
     31 C          67.2525   93.0609   11.3843 C.ar    1  UNL1       -0.0000
     32 C          66.5903   93.0309   10.0387 C.ar    1  UNL1       -0.0000
     33 C          65.2376   92.4019    9.8825 C.ar    1  UNL1       -0.0000
     34 C          64.5469   91.8030   11.0718 C.ar    1  UNL1       -0.0002
     35 C          65.2092   91.8331   12.4173 C.ar    1  UNL1        0.0006
     36 O          64.4902   90.6656   16.1415 O.3     1  UNL1       -0.4717
     37 C          63.5050   91.4806   16.9259 C.3     1  UNL1        0.2525
     38 C          63.7337   83.7544   13.0145 C.3     1  UNL1        0.2357
     39 S          63.4205   82.2970   13.1814 S.O2    1  UNL1        0.0007
     40 C          63.1074   80.8397   13.3483 C.3     1  UNL1        0.1766
     41 O          62.1536   82.6518   13.9019 O.2     1  UNL1       -0.1725
     42 O          64.6874   81.9423   12.4609 O.2     1  UNL1       -0.1725
@<TRIPOS>BOND
     1    22    23    1
     2    23    20    1
     3    20    21    1
     4    20    16    1
     5    16    17    2
     6    16    18   am
     7     1    18    1
     8     1     2    1
     9     2     3    2
    10     2     4   am
    11     4    25    1
    12    25    26    1
    13    26    27   ar
    14    27    36    1
    15    36    37    1
    16    27    28   ar
    17    28    29   ar
    18    29    30   ar
    19    30    31   ar
    20    31    32   ar
    21    32    33   ar
    22    33    34   ar
    23    34    35   ar
    24     4     5    1
    25     5     6   ar
    26     6     7   ar
    27     7     8   ar
    28     8     9   ar
    29     9    10   ar
    30    10    11    1
    31    11    12   am
    32    12    13    2
    33    12    38    1
    34    38    39    1
    35    39    40    1
    36    39    41    2
    37    39    42    2
    38    11    14    1
    39    14    15    1
    40    14     1    1
    41    35    26   ar
    42    10     5   ar
    43    35    30   ar
    44    23    24    1
    45    18    19    1
@<TRIPOS>MOLECULE
*****
 42 45 0 0 0
SMALL
GASTEIGER

@<TRIPOS>ATOM
      1 C          62.5091   88.5133   12.5012 C.3     1  UNL1        0.1678
      2 C          63.1959   87.1823   12.5840 C.2     1  UNL1        0.2492
      3 O          63.5562   87.2300   13.2934 O.2     1  UNL1       -0.2727
      4 N          63.1941   86.0652   11.5829 N.am    1  UNL1       -0.2517
      5 C          62.5051   86.0030   10.2520 C.ar    1  UNL1        0.0679
      6 C          62.7628   84.6963    9.5620 C.ar    1  UNL1        0.0162
      7 C          62.1630   84.4293    8.2133 C.ar    1  UNL1        0.0014
      8 C          61.3055   85.4690    7.5547 C.ar    1  UNL1        0.0014
      9 C          61.0478   86.7757    8.2447 C.ar    1  UNL1        0.0162
     10 C          61.6476   87.0427    9.5933 C.ar    1  UNL1        0.0676
     11 N          61.2675   88.4013   10.1030 N.am    1  UNL1       -0.2556
     12 C          60.3875   89.2127    9.1989 C.2     1  UNL1        0.2535
     13 O          59.9491   90.5860    9.6138 O.2     1  UNL1       -0.2726
     14 C          61.6508   89.0558   11.3971 C.3     1  UNL1        0.1067
     15 C          61.1036   90.4351   11.6160 C.3     1  UNL1        0.0242
     16 C          63.9163   90.3059   13.7486 C.2     1  UNL1        0.2371
     17 O          64.9285   90.2814   12.6419 O.2     1  UNL1       -0.2737
     18 N          62.7066   89.4219   13.6783 N.am    1  UNL1       -0.2959
     19 H          62.0422   89.4379   14.4046 H       1  UNL1        0.1499
     20 C          64.1138   91.2145   14.9257 C.3     1  UNL1        0.1316
     21 C          63.3888   90.9453   16.2109 C.3     1  UNL1        0.0270
     22 C          66.2331   92.4926   15.7161 C.3     1  UNL1        0.0862
     23 N          65.0363   92.3923   14.8175 N.3     1  UNL1       -0.2902
     24 H          65.3856   92.4057   13.8593 H       1  UNL1        0.1237
     25 C          63.9861   84.8494   11.9632 C.3     1  UNL1        0.1278
     26 C          63.3441   83.7568   12.7658 C.ar    1  UNL1        0.0320
     27 C          62.8894   84.0257   14.1697 C.ar    1  UNL1        0.1363
     28 C          62.2474   82.9333   14.9723 C.ar    1  UNL1        0.0366
     29 C          62.0602   81.5719   14.3711 C.ar    1  UNL1        0.0031
     30 C          62.5149   81.3030   12.9673 C.ar    1  UNL1       -0.0001
     31 C          62.3277   79.9415   12.3661 C.ar    1  UNL1       -0.0000
     32 C          62.7825   79.6725   10.9621 C.ar    1  UNL1       -0.0000
     33 C          63.4244   80.7651   10.1596 C.ar    1  UNL1       -0.0000
     34 C          63.6117   82.1265   10.7607 C.ar    1  UNL1       -0.0002
     35 C          63.1569   82.3954   12.1646 C.ar    1  UNL1        0.0006
     36 O          63.0766   85.3872   14.7709 O.3     1  UNL1       -0.4717
     37 C          63.4443   85.5237   16.2188 C.3     1  UNL1        0.2525
     38 C          59.9460   88.6510    7.8800 C.3     1  UNL1        0.2357
     39 S          59.2728   89.5377    6.8747 S.O2    1  UNL1        0.0007
     40 C          58.5995   90.4243    5.8696 C.3     1  UNL1        0.1766
     41 O          60.5582   90.2836    6.6718 O.2     1  UNL1       -0.1725
     42 O          57.9874   88.7917    7.0777 O.2     1  UNL1       -0.1725
@<TRIPOS>BOND
     1    22    23    1
     2    23    20    1
     3    20    21    1
     4    20    16    1
     5    16    17    2
     6    16    18   am
     7     1    18    1
     8     1     2    1
     9     2     3    2
    10     2     4   am
    11     4    25    1
    12    25    26    1
    13    26    27   ar
    14    27    36    1
    15    36    37    1
    16    27    28   ar
    17    28    29   ar
    18    29    30   ar
    19    30    31   ar
    20    31    32   ar
    21    32    33   ar
    22    33    34   ar
    23    34    35   ar
    24     4     5    1
    25     5     6   ar
    26     6     7   ar
    27     7     8   ar
    28     8     9   ar
    29     9    10   ar
    30    10    11    1
    31    11    12   am
    32    12    13    2
    33    12    38    1
    34    38    39    1
    35    39    40    1
    36    39    41    2
    37    39    42    2
    38    11    14    1
    39    14    15    1
    40    14     1    1
    41    35    26   ar
    42    10     5   ar
    43    35    30   ar
    44    23    24    1
    45    18    19    1
@<TRIPOS>MOLECULE
*****
 42 45 0 0 0
SMALL
GASTEIGER

@<TRIPOS>ATOM
      1 C          63.3482   86.4610   12.5728 C.3     1  UNL1        0.1678
      2 C          63.1033   87.9065   12.8900 C.2     1  UNL1        0.2492
      3 O          63.4463   87.9753   13.6062 O.2     1  UNL1       -0.2727
      4 N          62.3957   88.9386   12.0629 N.am    1  UNL1       -0.2517
      5 C          61.7581   88.7801   10.7144 C.ar    1  UNL1        0.0679
      6 C          61.1560   90.0687   10.2380 C.ar    1  UNL1        0.0162
      7 C          60.4664   90.1276    8.9073 C.ar    1  UNL1        0.0014
      8 C          60.3790   88.8978    8.0528 C.ar    1  UNL1        0.0014
      9 C          60.9812   87.6092    8.5291 C.ar    1  UNL1        0.0162
     10 C          61.6707   87.5504    9.8599 C.ar    1  UNL1        0.0676
     11 N          62.1993   86.1754   10.1429 N.am    1  UNL1       -0.2556
     12 C          61.9482   85.1496    9.0777 C.2     1  UNL1        0.2535
     13 O          62.4354   83.7429    9.2613 O.2     1  UNL1       -0.2726
     14 C          62.9459   85.6905   11.3502 C.3     1  UNL1        0.1067
     15 C          63.3425   84.2441   11.3327 C.3     1  UNL1        0.0242
     16 C          63.3411   84.8579   14.6173 C.2     1  UNL1        0.2371
     17 O          61.8424   84.8107   14.5751 O.2     1  UNL1       -0.2737
     18 N          64.0940   85.6830   13.6161 N.am    1  UNL1       -0.2959
     19 H          65.0776   85.7140   13.6438 H       1  UNL1        0.1499
     20 C          64.0869   84.0800   15.6606 C.3     1  UNL1        0.1316
     21 C          64.4689   84.7355   16.9546 C.3     1  UNL1        0.0270
     22 C          63.8937   81.9290   14.2163 C.3     1  UNL1        0.0862
     23 N          64.4506   82.6465   15.4100 N.3     1  UNL1       -0.2902
     24 H          65.4666   82.6106   15.3276 H       1  UNL1        0.1237
     25 C          62.3149   90.3106   12.6637 C.3     1  UNL1        0.1278
     26 C          63.5085   90.8968   13.3580 C.ar    1  UNL1        0.0320
     27 C          63.6606   90.7476   14.8427 C.ar    1  UNL1        0.1363
     28 C          64.8541   91.3338   15.5370 C.ar    1  UNL1        0.0366
     29 C          65.8954   92.0691   14.7465 C.ar    1  UNL1        0.0031
     30 C          65.7433   92.2182   13.2617 C.ar    1  UNL1       -0.0001
     31 C          66.7846   92.9535   12.4712 C.ar    1  UNL1       -0.0000
     32 C          66.6325   93.1027   10.9863 C.ar    1  UNL1       -0.0000
     33 C          65.4390   92.5165   10.2922 C.ar    1  UNL1       -0.0000
     34 C          64.3976   91.7812   11.0826 C.ar    1  UNL1       -0.0002
     35 C          64.5498   91.6321   12.5674 C.ar    1  UNL1        0.0006
     36 O          62.6193   90.0123   15.6333 O.3     1  UNL1       -0.4717
     37 C          63.0332   89.0580   16.7140 C.3     1  UNL1        0.2525
     38 C          61.2097   85.5305    7.8288 C.3     1  UNL1        0.2357
     39 S          61.4980   84.8185    6.5404 S.O2    1  UNL1        0.0007
     40 C          61.7864   84.1066    5.2521 C.3     1  UNL1        0.1766
     41 O          60.0289   84.5964    6.3344 O.2     1  UNL1       -0.1725
     42 O          62.9671   85.0407    6.7465 O.2     1  UNL1       -0.1725
@<TRIPOS>BOND
     1    22    23    1
     2    23    20    1
     3    20    21    1
     4    20    16    1
     5    16    17    2
     6    16    18   am
     7     1    18    1
     8     1     2    1
     9     2     3    2
    10     2     4   am
    11     4    25    1
    12    25    26    1
    13    26    27   ar
    14    27    36    1
    15    36    37    1
    16    27    28   ar
    17    28    29   ar
    18    29    30   ar
    19    30    31   ar
    20    31    32   ar
    21    32    33   ar
    22    33    34   ar
    23    34    35   ar
    24     4     5    1
    25     5     6   ar
    26     6     7   ar
    27     7     8   ar
    28     8     9   ar
    29     9    10   ar
    30    10    11    1
    31    11    12   am
    32    12    13    2
    33    12    38    1
    34    38    39    1
    35    39    40    1
    36    39    41    2
    37    39    42    2
    38    11    14    1
    39    14    15    1
    40    14     1    1
    41    35    26   ar
    42    10     5   ar
    43    35    30   ar
    44    23    24    1
    45    18    19    1
@<TRIPOS>MOLECULE
*****
 42 45 0 0 0
SMALL
GASTEIGER

@<TRIPOS>ATOM
      1 C          58.8953   93.6491   -1.6142 C.3     1  UNL1        0.1678
      2 C          59.7814   94.6072   -2.3537 C.2     1  UNL1        0.2492
      3 O          60.2313   94.8995   -1.7642 O.2     1  UNL1       -0.2727
      4 N          59.8014   94.9207   -3.8205 N.am    1  UNL1       -0.2517
      5 C          58.9403   94.3536   -4.9100 C.ar    1  UNL1        0.0679
      6 C          59.2888   94.9407   -6.2455 C.ar    1  UNL1        0.0162
      7 C          58.5435   94.5070   -7.4729 C.ar    1  UNL1        0.0014
      8 C          57.4497   93.4863   -7.3647 C.ar    1  UNL1        0.0014
      9 C          57.1012   92.8992   -6.0291 C.ar    1  UNL1        0.0162
     10 C          57.8465   93.3328   -4.8017 C.ar    1  UNL1        0.0676
     11 N          57.3437   92.6271   -3.5773 N.am    1  UNL1       -0.2556
     12 C          56.2263   91.6517   -3.8011 C.2     1  UNL1        0.2535
     13 O          55.6503   90.8924   -2.6427 O.2     1  UNL1       -0.2726
     14 C          57.8104   92.7678   -2.1587 C.3     1  UNL1        0.1067
     15 C          57.0981   91.9146   -1.1515 C.3     1  UNL1        0.0242
     16 C          60.3380   92.8562    0.3957 C.2     1  UNL1        0.2371
     17 O          61.3225   92.2404   -0.5538 O.2     1  UNL1       -0.2737
     18 N          59.1244   93.5605   -0.1345 N.am    1  UNL1       -0.2959
     19 H          58.4782   93.9646    0.4888 H       1  UNL1        0.1499
     20 C          60.5671   92.7676    1.8755 C.3     1  UNL1        0.1316
     21 C          61.9303   92.4333    2.4047 C.3     1  UNL1        0.0270
     22 C          59.2523   92.1274    4.0229 C.3     1  UNL1        0.0862
     23 N          59.4331   93.0133    2.8260 N.3     1  UNL1       -0.2902
     24 H          59.5444   93.9642    3.1777 H       1  UNL1        0.1237
     25 C          60.8168   95.9355   -4.2553 C.3     1  UNL1        0.1278
     26 C          62.2800   95.6167   -4.1699 C.ar    1  UNL1        0.0320
     27 C          63.0798   96.0757   -2.9869 C.ar    1  UNL1        0.1363
     28 C          64.5430   95.7569   -2.9015 C.ar    1  UNL1        0.0366
     29 C          65.2064   94.9790   -3.9991 C.ar    1  UNL1        0.0031
     30 C          64.4066   94.5199   -5.1820 C.ar    1  UNL1       -0.0001
     31 C          65.0700   93.7420   -6.2797 C.ar    1  UNL1       -0.0000
     32 C          64.2702   93.2829   -7.4628 C.ar    1  UNL1       -0.0000
     33 C          62.8070   93.6018   -7.5481 C.ar    1  UNL1       -0.0000
     34 C          62.1435   94.3797   -6.4505 C.ar    1  UNL1       -0.0002
     35 C          62.9434   94.8387   -5.2675 C.ar    1  UNL1        0.0006
     36 O          62.4164   96.8536   -1.8893 O.3     1  UNL1       -0.4717
     37 C          62.6973   96.5158   -0.4550 C.3     1  UNL1        0.2525
     38 C          55.6850   91.4355   -5.1832 C.3     1  UNL1        0.2357
     39 S          54.7607   90.2858   -5.4552 S.O2    1  UNL1        0.0007
     40 C          53.8365   89.1362   -5.7272 C.3     1  UNL1        0.1766
     41 O          54.4979   90.8226   -6.8310 O.2     1  UNL1       -0.1725
     42 O          55.0235   89.7491   -4.0794 O.2     1  UNL1       -0.1725
@<TRIPOS>BOND
     1    22    23    1
     2    23    20    1
     3    20    21    1
     4    20    16    1
     5    16    17    2
     6    16    18   am
     7     1    18    1
     8     1     2    1
     9     2     3    2
    10     2     4   am
    11     4    25    1
    12    25    26    1
    13    26    27   ar
    14    27    36    1
    15    36    37    1
    16    27    28   ar
    17    28    29   ar
    18    29    30   ar
    19    30    31   ar
    20    31    32   ar
    21    32    33   ar
    22    33    34   ar
    23    34    35   ar
    24     4     5    1
    25     5     6   ar
    26     6     7   ar
    27     7     8   ar
    28     8     9   ar
    29     9    10   ar
    30    10    11    1
    31    11    12   am
    32    12    13    2
    33    12    38    1
    34    38    39    1
    35    39    40    1
    36    39    41    2
    37    39    42    2
    38    11    14    1
    39    14    15    1
    40    14     1    1
    41    35    26   ar
    42    10     5   ar
    43    35    30   ar
    44    23    24    1
    45    18    19    1
