@<TRIPOS>MOLECULE
*****
 35 38 0 0 0
SMALL
GASTEIGER

@<TRIPOS>ATOM
      1 C          65.0905   91.3593   13.1921 C.2     1  UNL1        0.2685
      2 O          65.4608   91.6096   11.7603 O.2     1  UNL1       -0.2682
      3 N          63.9719   90.4166   13.5238 N.am    1  UNL1       -0.2723
      4 C          63.2235   89.7241   12.4236 C.3     1  UNL1        0.0761
      5 C          62.3672   90.3879   11.3862 C.3     1  UNL1        0.0213
      6 C          61.8146   89.3204   10.4891 C.3     1  UNL1        0.0190
      7 C          60.9438   89.0708    9.2936 C.3     1  UNL1        0.0722
      8 N          60.9202   87.5930    9.0375 N.3     1  UNL1       -0.2724
      9 C          61.7766   86.9292   10.0749 C.3     1  UNL1        0.0722
     10 C          62.3293   87.9968   10.9720 C.3     1  UNL1        0.0190
     11 C          63.2001   88.2463   12.1676 C.3     1  UNL1        0.0213
     12 C          60.1719   86.9006    7.9374 C.3     1  UNL1        0.0809
     13 C          60.3894   85.4376    7.6876 C.3     1  UNL1        0.1206
     14 C          61.5216   84.9862    6.8132 C.3     1  UNL1        0.3991
     15 F          62.6538   84.5348    5.9389 F       1  UNL1       -0.1700
     16 F          60.5436   84.3243    5.8885 F       1  UNL1       -0.1700
     17 F          62.4997   85.6481    7.7380 F       1  UNL1       -0.1700
     18 C          68.8703   93.8848   15.8785 C.3     1  UNL1        0.1321
     19 N          67.5761   93.2125   15.5272 N.ar    1  UNL1       -0.3057
     20 C          66.4045   93.0217   16.4442 C.ar    1  UNL1        0.1787
     21 N          65.3308   92.3043   15.6810 N.ar    1  UNL1       -0.2192
     22 C          65.8389   92.0517   14.2924 C.ar    1  UNL1        0.1535
     23 C          67.2266   92.6130   14.1974 C.ar    1  UNL1        0.1012
     24 C          63.6017   90.1663   14.9557 C.3     1  UNL1        0.1205
     25 C          63.6049   88.7676   15.4977 C.ar    1  UNL1        0.0007
     26 C          62.9163   88.4645   16.7953 C.ar    1  UNL1       -0.0024
     27 C          62.9195   87.0659   17.3373 C.ar    1  UNL1        0.0028
     28 C          63.6113   85.9703   16.5817 C.ar    1  UNL1        0.0372
     29 C          64.3001   86.2733   15.2841 C.ar    1  UNL1        0.1465
     30 C          64.2968   87.6719   14.7421 C.ar    1  UNL1        0.0346
     31 O          64.9919   85.1777   14.5284 O.3     1  UNL1       -0.4045
     32 C          64.1905   84.0685   13.9141 C.3     1  UNL1        0.5753
     33 F          63.3891   82.9592   13.2999 F       1  UNL1       -0.1328
     34 F          63.7926   84.9785   12.7901 F       1  UNL1       -0.1328
     35 F          64.5885   83.1585   15.0382 F       1  UNL1       -0.1328
@<TRIPOS>BOND
     1    18    19    1
     2    19    20   ar
     3    20    21   ar
     4    21    22   ar
     5    22     1    1
     6     1     2    2
     7     1     3   am
     8     3    24    1
     9    24    25    1
    10    25    26   ar
    11    26    27   ar
    12    27    28   ar
    13    28    29   ar
    14    29    31    1
    15    31    32    1
    16    32    33    1
    17    32    34    1
    18    32    35    1
    19    29    30   ar
    20     4     3    1
    21     4     5    1
    22     6     5    1
    23     6     7    1
    24     7     8    1
    25     8    12    1
    26    12    13    1
    27    13    14    1
    28    14    15    1
    29    14    16    1
    30    14    17    1
    31     8     9    1
    32    10     9    1
    33    10    11    1
    34    22    23   ar
    35    23    19   ar
    36    30    25   ar
    37    11     4    1
    38    10     6    1
@<TRIPOS>MOLECULE
*****
 35 38 0 0 0
SMALL
GASTEIGER

@<TRIPOS>ATOM
      1 C          65.0810   91.4270   13.1257 C.2     1  UNL1        0.2685
      2 O          65.4218   91.7158   11.6938 O.2     1  UNL1       -0.2682
      3 N          63.8428   90.6491   13.4598 N.am    1  UNL1       -0.2723
      4 C          62.9452   90.1600   12.3620 C.3     1  UNL1        0.0761
      5 C          63.0430   88.8337   11.6683 C.3     1  UNL1        0.0213
      6 C          61.9505   88.7654   10.6427 C.3     1  UNL1        0.0190
      7 C          61.3358   87.9035    9.5801 C.3     1  UNL1        0.0722
      8 N          60.1828   88.6548    8.9833 N.3     1  UNL1       -0.2724
      9 C          60.0850   89.9812    9.6771 C.3     1  UNL1        0.0722
     10 C          61.1775   90.0495   10.7026 C.3     1  UNL1        0.0190
     11 C          61.7923   90.9114   11.7653 C.3     1  UNL1        0.0213
     12 C          59.2853   88.1658    7.8855 C.3     1  UNL1        0.0809
     13 C          59.5030   88.6301    6.4759 C.3     1  UNL1        0.1206
     14 C          59.0546   89.9996    6.0596 C.3     1  UNL1        0.3991
     15 F          58.6061   91.3691    5.6433 F       1  UNL1       -0.1700
     16 F          60.4290   90.2899    5.5338 F       1  UNL1       -0.1700
     17 F          57.6801   89.7093    6.5854 F       1  UNL1       -0.1700
     18 C          69.3928   92.6466   15.9189 C.3     1  UNL1        0.1321
     19 N          67.9603   92.4766   15.5075 N.ar    1  UNL1       -0.3057
     20 C          66.7586   92.8607   16.3188 C.ar    1  UNL1        0.1787
     21 N          65.5337   92.5142   15.5253 N.ar    1  UNL1       -0.2192
     22 C          65.9785   91.9160   14.2236 C.ar    1  UNL1        0.1535
     23 C          67.4782   91.8928   14.2126 C.ar    1  UNL1        0.1012
     24 C          63.5020   90.3604   14.8918 C.3     1  UNL1        0.1205
     25 C          63.5544   88.9522   15.4059 C.ar    1  UNL1        0.0007
     26 C          62.9203   88.6100   16.7215 C.ar    1  UNL1       -0.0024
     27 C          62.9727   87.2018   17.2356 C.ar    1  UNL1        0.0028
     28 C          63.6591   86.1358   16.4342 C.ar    1  UNL1        0.0372
     29 C          64.2932   86.4779   15.1185 C.ar    1  UNL1        0.1465
     30 C          64.2408   87.8861   14.6044 C.ar    1  UNL1        0.0346
     31 O          64.9796   85.4119   14.3170 O.3     1  UNL1       -0.4045
     32 C          64.1827   84.2849   13.7298 C.3     1  UNL1        0.5753
     33 F          63.3857   83.1579   13.1426 F       1  UNL1       -0.1328
     34 F          64.6951   83.3657   14.7987 F       1  UNL1       -0.1328
     35 F          63.6703   85.2041   12.6610 F       1  UNL1       -0.1328
@<TRIPOS>BOND
     1    18    19    1
     2    19    20   ar
     3    20    21   ar
     4    21    22   ar
     5    22     1    1
     6     1     2    2
     7     1     3   am
     8     3    24    1
     9    24    25    1
    10    25    26   ar
    11    26    27   ar
    12    27    28   ar
    13    28    29   ar
    14    29    31    1
    15    31    32    1
    16    32    33    1
    17    32    34    1
    18    32    35    1
    19    29    30   ar
    20     4     3    1
    21     4     5    1
    22     6     5    1
    23     6     7    1
    24     7     8    1
    25     8    12    1
    26    12    13    1
    27    13    14    1
    28    14    15    1
    29    14    16    1
    30    14    17    1
    31     8     9    1
    32    10     9    1
    33    10    11    1
    34    22    23   ar
    35    23    19   ar
    36    30    25   ar
    37    11     4    1
    38    10     6    1
@<TRIPOS>MOLECULE
*****
 35 38 0 0 0
SMALL
GASTEIGER

@<TRIPOS>ATOM
      1 C          63.9143   84.8226   13.5453 C.2     1  UNL1        0.2685
      2 O          65.2275   85.0287   14.2401 O.2     1  UNL1       -0.2682
      3 N          63.1050   86.0061   13.1044 N.am    1  UNL1       -0.2723
      4 C          63.6090   87.3959   13.3584 C.3     1  UNL1        0.0761
      5 C          63.4240   88.5795   12.4557 C.3     1  UNL1        0.0213
      6 C          64.0872   89.7612   13.0991 C.3     1  UNL1        0.0190
      7 C          64.3828   91.2230   12.9388 C.3     1  UNL1        0.0722
      8 N          65.1603   91.6732   14.1400 N.3     1  UNL1       -0.2724
      9 C          65.3453   90.4894   15.0427 C.3     1  UNL1        0.0722
     10 C          64.6821   89.3078   14.3993 C.3     1  UNL1        0.0190
     11 C          64.3866   87.8460   14.5596 C.3     1  UNL1        0.0213
     12 C          65.6643   93.0629   14.3940 C.3     1  UNL1        0.0809
     13 C          67.1392   93.3363   14.4003 C.3     1  UNL1        0.1206
     14 C          67.9905   92.8333   15.5283 C.3     1  UNL1        0.3991
     15 F          68.8417   92.3304   16.6564 F       1  UNL1       -0.1700
     16 F          69.1046   92.5550   14.5635 F       1  UNL1       -0.1700
     17 F          66.8763   93.1117   16.4933 F       1  UNL1       -0.1700
     18 C          61.2598   80.2812   14.0044 C.3     1  UNL1        0.1321
     19 N          62.1901   81.3454   13.5023 N.ar    1  UNL1       -0.3057
     20 C          63.0789   81.2430   12.2984 C.ar    1  UNL1        0.1787
     21 N          63.8330   82.5332   12.1679 N.ar    1  UNL1       -0.2192
     22 C          63.4101   83.4328   13.2913 C.ar    1  UNL1        0.1535
     23 C          62.3948   82.6988   14.1159 C.ar    1  UNL1        0.1012
     24 C          61.7917   85.7999   12.4096 C.3     1  UNL1        0.1205
     25 C          61.7037   85.9308   10.9180 C.ar    1  UNL1        0.0007
     26 C          62.7308   85.2722   10.0454 C.ar    1  UNL1       -0.0024
     27 C          62.6428   85.4031    8.5537 C.ar    1  UNL1        0.0028
     28 C          61.5278   86.1926    7.9345 C.ar    1  UNL1        0.0372
     29 C          60.5007   86.8513    8.8071 C.ar    1  UNL1        0.1465
     30 C          60.5887   86.7204   10.2988 C.ar    1  UNL1        0.0346
     31 O          59.3857   87.6409    8.1880 O.3     1  UNL1       -0.4045
     32 C          59.6912   88.8841    7.4062 C.3     1  UNL1        0.5753
     33 F          59.9966   90.1272    6.6243 F       1  UNL1       -0.1328
     34 F          60.5816   89.3623    8.5145 F       1  UNL1       -0.1328
     35 F          58.8007   88.4058    6.2979 F       1  UNL1       -0.1328
@<TRIPOS>BOND
     1    18    19    1
     2    19    20   ar
     3    20    21   ar
     4    21    22   ar
     5    22     1    1
     6     1     2    2
     7     1     3   am
     8     3    24    1
     9    24    25    1
    10    25    26   ar
    11    26    27   ar
    12    27    28   ar
    13    28    29   ar
    14    29    31    1
    15    31    32    1
    16    32    33    1
    17    32    34    1
    18    32    35    1
    19    29    30   ar
    20     4     3    1
    21     4     5    1
    22     6     5    1
    23     6     7    1
    24     7     8    1
    25     8    12    1
    26    12    13    1
    27    13    14    1
    28    14    15    1
    29    14    16    1
    30    14    17    1
    31     8     9    1
    32    10     9    1
    33    10    11    1
    34    22    23   ar
    35    23    19   ar
    36    30    25   ar
    37    11     4    1
    38    10     6    1
@<TRIPOS>MOLECULE
*****
 35 38 0 0 0
SMALL
GASTEIGER

@<TRIPOS>ATOM
      1 C          63.9071   84.8361   13.5406 C.2     1  UNL1        0.2685
      2 O          65.2202   85.0445   14.2351 O.2     1  UNL1       -0.2682
      3 N          63.0985   86.0182   13.0948 N.am    1  UNL1       -0.2723
      4 C          63.6030   87.4088   13.3435 C.3     1  UNL1        0.0761
      5 C          64.3880   87.8612   14.5390 C.3     1  UNL1        0.0213
      6 C          64.6811   89.3231   14.3748 C.3     1  UNL1        0.0190
      7 C          65.3475   90.5062   15.0121 C.3     1  UNL1        0.0722
      8 N          65.1555   91.6885   14.1091 N.3     1  UNL1       -0.2724
      9 C          64.3704   91.2360   12.9137 C.3     1  UNL1        0.0722
     10 C          64.0773   89.7742   13.0779 C.3     1  UNL1        0.0190
     11 C          63.4109   88.5910   12.4405 C.3     1  UNL1        0.0213
     12 C          65.6599   93.0790   14.3579 C.3     1  UNL1        0.0809
     13 C          67.1354   93.3437   14.4088 C.3     1  UNL1        0.1206
     14 C          67.9573   92.7953   15.5375 C.3     1  UNL1        0.3991
     15 F          68.7793   92.2469   16.6661 F       1  UNL1       -0.1700
     16 F          66.8622   93.1403   16.5027 F       1  UNL1       -0.1700
     17 F          69.0524   92.4502   14.5723 F       1  UNL1       -0.1700
     18 C          61.2586   80.2936   14.0223 C.3     1  UNL1        0.1321
     19 N          62.1853   81.3576   13.5131 N.ar    1  UNL1       -0.3057
     20 C          63.0673   81.2539   12.3044 C.ar    1  UNL1        0.1787
     21 N          63.8197   82.5444   12.1675 N.ar    1  UNL1       -0.2192
     22 C          63.4026   83.4456   13.2917 C.ar    1  UNL1        0.1535
     23 C          62.3925   82.7122   14.1233 C.ar    1  UNL1        0.1012
     24 C          61.7855   85.8098   12.4002 C.3     1  UNL1        0.1205
     25 C          61.6996   85.9283   10.9074 C.ar    1  UNL1        0.0007
     26 C          62.7233   85.2558   10.0415 C.ar    1  UNL1       -0.0024
     27 C          62.6374   85.3743    8.5486 C.ar    1  UNL1        0.0028
     28 C          61.5279   86.1653    7.9216 C.ar    1  UNL1        0.0372
     29 C          60.5041   86.8379    8.7875 C.ar    1  UNL1        0.1465
     30 C          60.5900   86.7194   10.2803 C.ar    1  UNL1        0.0346
     31 O          59.3945   87.6289    8.1605 O.3     1  UNL1       -0.4045
     32 C          59.7036   88.8922    7.4132 C.3     1  UNL1        0.5753
     33 F          60.0126   90.1556    6.6658 F       1  UNL1       -0.1328
     34 F          60.6122   89.3274    8.5245 F       1  UNL1       -0.1328
     35 F          58.7949   88.4571    6.3019 F       1  UNL1       -0.1328
@<TRIPOS>BOND
     1    18    19    1
     2    19    20   ar
     3    20    21   ar
     4    21    22   ar
     5    22     1    1
     6     1     2    2
     7     1     3   am
     8     3    24    1
     9    24    25    1
    10    25    26   ar
    11    26    27   ar
    12    27    28   ar
    13    28    29   ar
    14    29    31    1
    15    31    32    1
    16    32    33    1
    17    32    34    1
    18    32    35    1
    19    29    30   ar
    20     4     3    1
    21     4     5    1
    22     6     5    1
    23     6     7    1
    24     7     8    1
    25     8    12    1
    26    12    13    1
    27    13    14    1
    28    14    15    1
    29    14    16    1
    30    14    17    1
    31     8     9    1
    32    10     9    1
    33    10    11    1
    34    22    23   ar
    35    23    19   ar
    36    30    25   ar
    37    11     4    1
    38    10     6    1
@<TRIPOS>MOLECULE
*****
 35 38 0 0 0
SMALL
GASTEIGER

@<TRIPOS>ATOM
      1 C          65.8020   92.6215   12.0658 C.2     1  UNL1        0.2685
      2 O          66.6072   92.6700   13.3304 O.2     1  UNL1       -0.2682
      3 N          64.6425   91.6770   11.9506 N.am    1  UNL1       -0.2723
      4 C          64.2881   90.7808   13.1001 C.3     1  UNL1        0.0761
      5 C          64.3921   89.2845   13.1161 C.3     1  UNL1        0.0213
      6 C          63.9357   88.8026   14.4613 C.3     1  UNL1        0.0190
      7 C          63.7180   87.5799   15.3025 C.3     1  UNL1        0.0722
      8 N          63.1974   88.0227   16.6379 N.3     1  UNL1       -0.2724
      9 C          63.0934   89.5191   16.6218 C.3     1  UNL1        0.0722
     10 C          63.5497   90.0010   15.2766 C.3     1  UNL1        0.0190
     11 C          63.7675   91.2236   14.4354 C.3     1  UNL1        0.0213
     12 C          62.8430   87.1266   17.7873 C.3     1  UNL1        0.0809
     13 C          62.8031   85.6396   17.5944 C.3     1  UNL1        0.1206
     14 C          62.3036   85.0639   16.3025 C.3     1  UNL1        0.3991
     15 F          61.8041   84.4881   15.0105 F       1  UNL1       -0.1700
     16 F          60.9634   85.6943   16.5397 F       1  UNL1       -0.1700
     17 F          63.6439   84.4334   16.0652 F       1  UNL1       -0.1700
     18 C          66.0309   96.7905    8.8334 C.3     1  UNL1        0.1321
     19 N          66.2616   95.4339    9.4305 N.ar    1  UNL1       -0.3057
     20 C          67.1417   94.3594    8.8641 C.ar    1  UNL1        0.1787
     21 N          67.0767   93.1751    9.7825 N.ar    1  UNL1       -0.2192
     22 C          66.1563   93.5177   10.9163 C.ar    1  UNL1        0.1535
     23 C          65.6526   94.9137   10.6988 C.ar    1  UNL1        0.1012
     24 C          63.8373   91.6287   10.6860 C.3     1  UNL1        0.1205
     25 C          62.6280   90.7453   10.6001 C.ar    1  UNL1        0.0007
     26 C          61.3441   91.1661   11.2515 C.ar    1  UNL1       -0.0024
     27 C          60.1348   90.2828   11.1657 C.ar    1  UNL1        0.0028
     28 C          60.2094   88.9786   10.4284 C.ar    1  UNL1        0.0372
     29 C          61.4934   88.5578    9.7770 C.ar    1  UNL1        0.1465
     30 C          62.7027   89.4411    9.8628 C.ar    1  UNL1        0.0346
     31 O          61.5681   87.2536    9.0397 O.3     1  UNL1       -0.4045
     32 C          62.2876   86.0873    9.6497 C.3     1  UNL1        0.5753
     33 F          63.0070   84.9210   10.2599 F       1  UNL1       -0.1328
     34 F          63.1295   85.9607    8.4148 F       1  UNL1       -0.1328
     35 F          61.4456   86.2139   10.8847 F       1  UNL1       -0.1328
@<TRIPOS>BOND
     1    18    19    1
     2    19    20   ar
     3    20    21   ar
     4    21    22   ar
     5    22     1    1
     6     1     2    2
     7     1     3   am
     8     3    24    1
     9    24    25    1
    10    25    26   ar
    11    26    27   ar
    12    27    28   ar
    13    28    29   ar
    14    29    31    1
    15    31    32    1
    16    32    33    1
    17    32    34    1
    18    32    35    1
    19    29    30   ar
    20     4     3    1
    21     4     5    1
    22     6     5    1
    23     6     7    1
    24     7     8    1
    25     8    12    1
    26    12    13    1
    27    13    14    1
    28    14    15    1
    29    14    16    1
    30    14    17    1
    31     8     9    1
    32    10     9    1
    33    10    11    1
    34    22    23   ar
    35    23    19   ar
    36    30    25   ar
    37    11     4    1
    38    10     6    1
@<TRIPOS>MOLECULE
*****
 35 38 0 0 0
SMALL
GASTEIGER

@<TRIPOS>ATOM
      1 C          63.9070   84.6787   13.9342 C.2     1  UNL1        0.2685
      2 O          65.1056   84.9893   14.7808 O.2     1  UNL1       -0.2682
      3 N          63.1614   85.7883   13.2539 N.am    1  UNL1       -0.2723
      4 C          63.6144   87.2086   13.4201 C.3     1  UNL1        0.0761
      5 C          64.4428   87.7432   14.5505 C.3     1  UNL1        0.0213
      6 C          64.6589   89.2086   14.3141 C.3     1  UNL1        0.0190
      7 C          65.3044   90.4447   14.8666 C.3     1  UNL1        0.0722
      8 N          65.0086   91.5797   13.9316 N.3     1  UNL1       -0.2724
      9 C          64.1802   91.0450   12.8011 C.3     1  UNL1        0.0722
     10 C          63.9641   89.5796   13.0375 C.3     1  UNL1        0.0190
     11 C          63.3186   88.3435   12.4850 C.3     1  UNL1        0.0213
     12 C          65.4616   92.9999   14.0977 C.3     1  UNL1        0.0809
     13 C          66.5134   93.5629   13.1885 C.3     1  UNL1        0.1206
     14 C          66.5693   93.1363   11.7515 C.3     1  UNL1        0.3991
     15 F          66.6251   92.7097   10.3145 F       1  UNL1       -0.1700
     16 F          67.6267   92.1284   12.0918 F       1  UNL1       -0.1700
     17 F          65.5118   94.1442   11.4112 F       1  UNL1       -0.1700
     18 C          61.0261   80.2620   14.2065 C.3     1  UNL1        0.1321
     19 N          62.1297   81.2283   13.8931 N.ar    1  UNL1       -0.3057
     20 C          63.3837   80.9175   13.1309 C.ar    1  UNL1        0.1787
     21 N          64.2021   82.1722   13.0536 N.ar    1  UNL1       -0.2192
     22 C          63.4538   83.2584   13.7679 C.ar    1  UNL1        0.1535
     23 C          62.1731   82.6751   14.2867 C.ar    1  UNL1        0.1012
     24 C          61.9627   85.4776   12.4073 C.3     1  UNL1        0.1205
     25 C          62.0849   85.4587   10.9124 C.ar    1  UNL1        0.0007
     26 C          63.1652   84.6492   10.2584 C.ar    1  UNL1       -0.0024
     27 C          63.2874   84.6303    8.7635 C.ar    1  UNL1        0.0028
     28 C          62.3293   85.4208    7.9226 C.ar    1  UNL1        0.0372
     29 C          61.2489   86.2303    8.5765 C.ar    1  UNL1        0.1465
     30 C          61.1268   86.2492   10.0714 C.ar    1  UNL1        0.0346
     31 O          60.2908   87.0208    7.7357 O.3     1  UNL1       -0.4045
     32 C          59.8872   88.4027    8.1569 C.3     1  UNL1        0.5753
     33 F          59.4837   89.7847    8.5781 F       1  UNL1       -0.1328
     34 F          58.5085   88.1649    7.6161 F       1  UNL1       -0.1328
     35 F          61.2660   88.6405    8.6977 F       1  UNL1       -0.1328
@<TRIPOS>BOND
     1    18    19    1
     2    19    20   ar
     3    20    21   ar
     4    21    22   ar
     5    22     1    1
     6     1     2    2
     7     1     3   am
     8     3    24    1
     9    24    25    1
    10    25    26   ar
    11    26    27   ar
    12    27    28   ar
    13    28    29   ar
    14    29    31    1
    15    31    32    1
    16    32    33    1
    17    32    34    1
    18    32    35    1
    19    29    30   ar
    20     4     3    1
    21     4     5    1
    22     6     5    1
    23     6     7    1
    24     7     8    1
    25     8    12    1
    26    12    13    1
    27    13    14    1
    28    14    15    1
    29    14    16    1
    30    14    17    1
    31     8     9    1
    32    10     9    1
    33    10    11    1
    34    22    23   ar
    35    23    19   ar
    36    30    25   ar
    37    11     4    1
    38    10     6    1
@<TRIPOS>MOLECULE
*****
 35 38 0 0 0
SMALL
GASTEIGER

@<TRIPOS>ATOM
      1 C          61.7824   88.2163    9.6941 C.2     1  UNL1        0.2685
      2 O          62.2887   89.5328    9.1839 O.2     1  UNL1       -0.2682
      3 N          62.0722   87.7970   11.1049 N.am    1  UNL1       -0.2723
      4 C          62.8685   88.6943   12.0054 C.3     1  UNL1        0.0761
      5 C          63.5749   88.2800   13.2621 C.3     1  UNL1        0.0213
      6 C          64.2412   89.4930   13.8407 C.3     1  UNL1        0.0190
      7 C          65.0895   89.9866   14.9749 C.3     1  UNL1        0.0722
      8 N          65.3192   91.4557   14.7769 N.3     1  UNL1       -0.2724
      9 C          64.6128   91.8699   13.5201 C.3     1  UNL1        0.0722
     10 C          63.9465   90.6569   12.9415 C.3     1  UNL1        0.0190
     11 C          63.0982   90.1633   11.8072 C.3     1  UNL1        0.0213
     12 C          66.1155   92.3529   15.6773 C.3     1  UNL1        0.0809
     13 C          67.5832   92.1108   15.8701 C.3     1  UNL1        0.1206
     14 C          68.5305   93.2710   15.9517 C.3     1  UNL1        0.3991
     15 F          69.4776   94.4312   16.0334 F       1  UNL1       -0.1700
     16 F          69.5031   92.4231   16.7164 F       1  UNL1       -0.1700
     17 F          67.5577   94.1189   15.1870 F       1  UNL1       -0.1700
     18 C          60.4760   84.4008    6.2859 C.3     1  UNL1        0.1321
     19 N          60.3855   85.5653    7.2271 N.ar    1  UNL1       -0.3057
     20 C          59.1356   86.3114    7.5890 C.ar    1  UNL1        0.1787
     21 N          59.5068   87.3953    8.5573 N.ar    1  UNL1       -0.2192
     22 C          60.9860   87.3190    8.7937 C.ar    1  UNL1        0.1535
     23 C          61.5291   86.1881    7.9716 C.ar    1  UNL1        0.1012
     24 C          61.5658   86.4805   11.6151 C.3     1  UNL1        0.1205
     25 C          62.3987   85.2434   11.4545 C.ar    1  UNL1        0.0007
     26 C          63.1238   84.9894   10.1661 C.ar    1  UNL1       -0.0024
     27 C          63.9566   83.7523   10.0055 C.ar    1  UNL1        0.0028
     28 C          64.0645   82.7691   11.1332 C.ar    1  UNL1        0.0372
     29 C          63.3395   83.0230   12.4216 C.ar    1  UNL1        0.1465
     30 C          62.5066   84.2602   12.5822 C.ar    1  UNL1        0.0346
     31 O          63.4473   82.0399   13.5493 O.3     1  UNL1       -0.4045
     32 C          62.2316   81.2928   14.0118 C.3     1  UNL1        0.5753
     33 F          61.0159   80.5457   14.4743 F       1  UNL1       -0.1328
     34 F          62.4352   80.2853   12.9193 F       1  UNL1       -0.1328
     35 F          62.0281   82.3002   15.1043 F       1  UNL1       -0.1328
@<TRIPOS>BOND
     1    18    19    1
     2    19    20   ar
     3    20    21   ar
     4    21    22   ar
     5    22     1    1
     6     1     2    2
     7     1     3   am
     8     3    24    1
     9    24    25    1
    10    25    26   ar
    11    26    27   ar
    12    27    28   ar
    13    28    29   ar
    14    29    31    1
    15    31    32    1
    16    32    33    1
    17    32    34    1
    18    32    35    1
    19    29    30   ar
    20     4     3    1
    21     4     5    1
    22     6     5    1
    23     6     7    1
    24     7     8    1
    25     8    12    1
    26    12    13    1
    27    13    14    1
    28    14    15    1
    29    14    16    1
    30    14    17    1
    31     8     9    1
    32    10     9    1
    33    10    11    1
    34    22    23   ar
    35    23    19   ar
    36    30    25   ar
    37    11     4    1
    38    10     6    1
@<TRIPOS>MOLECULE
*****
 35 38 0 0 0
SMALL
GASTEIGER

@<TRIPOS>ATOM
      1 C          65.1303   90.7524   13.9494 C.2     1  UNL1        0.2685
      2 O          64.8901   89.3366   14.3827 O.2     1  UNL1       -0.2682
      3 N          64.4381   91.2923   12.7332 N.am    1  UNL1       -0.2723
      4 C          63.5055   90.4163   11.9502 C.3     1  UNL1        0.0761
      5 C          62.7461   90.8151   10.7196 C.3     1  UNL1        0.0213
      6 C          61.9399   89.6331   10.2692 C.3     1  UNL1        0.0190
      7 C          60.9722   89.1489    9.2303 C.3     1  UNL1        0.0722
      8 N          60.6353   87.7205    9.5404 N.3     1  UNL1       -0.2724
      9 C          61.3948   87.3218   10.7710 C.3     1  UNL1        0.0722
     10 C          62.2010   88.5038   11.2214 C.3     1  UNL1        0.0190
     11 C          63.1687   88.9879   12.2603 C.3     1  UNL1        0.0213
     12 C          59.7028   86.8446    8.7575 C.3     1  UNL1        0.0809
     13 C          60.1488   86.2499    7.4546 C.3     1  UNL1        0.1206
     14 C          61.3883   85.4069    7.4002 C.3     1  UNL1        0.3991
     15 F          62.6279   84.5639    7.3458 F       1  UNL1       -0.1700
     16 F          60.6359   84.3491    6.6486 F       1  UNL1       -0.1700
     17 F          62.1407   86.4647    8.1518 F       1  UNL1       -0.1700
     18 C          69.4972   93.1947   15.6367 C.3     1  UNL1        0.1321
     19 N          68.0700   92.7510   15.5080 N.ar    1  UNL1       -0.3057
     20 C          66.9258   93.2018   16.3666 C.ar    1  UNL1        0.1787
     21 N          65.6852   92.5080   15.8872 N.ar    1  UNL1       -0.2192
     22 C          66.0629   91.6284   14.7324 C.ar    1  UNL1        0.1535
     23 C          67.5368   91.7785   14.4980 C.ar    1  UNL1        0.1012
     24 C          64.6784   92.7081   12.2999 C.3     1  UNL1        0.1205
     25 C          65.7955   93.0221   11.3493 C.ar    1  UNL1        0.0007
     26 C          66.7588   91.9467   10.9426 C.ar    1  UNL1       -0.0024
     27 C          67.8759   92.2608    9.9920 C.ar    1  UNL1        0.0028
     28 C          68.0296   93.6502    9.4482 C.ar    1  UNL1        0.0372
     29 C          67.0663   94.7257    9.8549 C.ar    1  UNL1        0.1465
     30 C          65.9493   94.4116   10.8055 C.ar    1  UNL1        0.0346
     31 O          67.2200   96.1152    9.3112 O.3     1  UNL1       -0.4045
     32 C          66.5832   96.4837    8.0040 C.3     1  UNL1        0.5753
     33 F          65.9463   96.8522    6.6969 F       1  UNL1       -0.1328
     34 F          67.9366   96.5363    7.3595 F       1  UNL1       -0.1328
     35 F          65.2298   96.4311    8.6486 F       1  UNL1       -0.1328
@<TRIPOS>BOND
     1    18    19    1
     2    19    20   ar
     3    20    21   ar
     4    21    22   ar
     5    22     1    1
     6     1     2    2
     7     1     3   am
     8     3    24    1
     9    24    25    1
    10    25    26   ar
    11    26    27   ar
    12    27    28   ar
    13    28    29   ar
    14    29    31    1
    15    31    32    1
    16    32    33    1
    17    32    34    1
    18    32    35    1
    19    29    30   ar
    20     4     3    1
    21     4     5    1
    22     6     5    1
    23     6     7    1
    24     7     8    1
    25     8    12    1
    26    12    13    1
    27    13    14    1
    28    14    15    1
    29    14    16    1
    30    14    17    1
    31     8     9    1
    32    10     9    1
    33    10    11    1
    34    22    23   ar
    35    23    19   ar
    36    30    25   ar
    37    11     4    1
    38    10     6    1
@<TRIPOS>MOLECULE
*****
 35 38 0 0 0
SMALL
GASTEIGER

@<TRIPOS>ATOM
      1 C          62.5060   84.1967   14.2898 C.2     1  UNL1        0.2685
      2 O          62.2272   84.8570   15.6074 O.2     1  UNL1       -0.2682
      3 N          63.1663   84.9709   13.1877 N.am    1  UNL1       -0.2723
      4 C          63.5480   86.4054   13.4033 C.3     1  UNL1        0.0761
      5 C          63.1823   87.5580   12.5158 C.3     1  UNL1        0.0213
      6 C          63.7707   88.8041   13.1083 C.3     1  UNL1        0.0190
      7 C          63.9083   90.2866   12.9260 C.3     1  UNL1        0.0722
      8 N          64.7227   90.8204   14.0670 N.3     1  UNL1       -0.2724
      9 C          65.0884   89.6677   14.9545 C.3     1  UNL1        0.0722
     10 C          64.5000   88.4216   14.3620 C.3     1  UNL1        0.0190
     11 C          64.3624   86.9391   14.5443 C.3     1  UNL1        0.0213
     12 C          65.1044   92.2548   14.2826 C.3     1  UNL1        0.0809
     13 C          66.0624   92.6196   15.3776 C.3     1  UNL1        0.1206
     14 C          67.5240   92.7712   15.0759 C.3     1  UNL1        0.3991
     15 F          68.9855   92.9227   14.7741 F       1  UNL1       -0.1700
     16 F          67.7432   93.3651   16.4356 F       1  UNL1       -0.1700
     17 F          67.3048   92.1772   13.7160 F       1  UNL1       -0.1700
     18 C          62.6288   79.1414   12.7699 C.3     1  UNL1        0.1321
     19 N          62.1807   80.4386   13.3756 N.ar    1  UNL1       -0.3057
     20 C          60.8931   80.6708   14.1090 C.ar    1  UNL1        0.1787
     21 N          60.8582   82.1070   14.5407 N.ar    1  UNL1       -0.2192
     22 C          62.1243   82.7622   14.0741 C.ar    1  UNL1        0.1535
     23 C          62.9416   81.7311   13.3540 C.ar    1  UNL1        0.1012
     24 C          63.4451   84.3105   11.8701 C.3     1  UNL1        0.1205
     25 C          62.8293   84.8527   10.6144 C.ar    1  UNL1        0.0007
     26 C          63.4362   84.5293    9.2812 C.ar    1  UNL1       -0.0024
     27 C          62.8204   85.0715    8.0255 C.ar    1  UNL1        0.0028
     28 C          61.5978   85.9370    8.1028 C.ar    1  UNL1        0.0372
     29 C          60.9908   86.2605    9.4359 C.ar    1  UNL1        0.1465
     30 C          61.6066   85.7183   10.6916 C.ar    1  UNL1        0.0346
     31 O          59.7682   87.1260    9.5133 O.3     1  UNL1       -0.4045
     32 C          59.9014   88.5851    9.8344 C.3     1  UNL1        0.5753
     33 F          60.0346   90.0443   10.1556 F       1  UNL1       -0.1328
     34 F          60.1576   88.8805    8.3863 F       1  UNL1       -0.1328
     35 F          59.6452   88.2898   11.2825 F       1  UNL1       -0.1328
@<TRIPOS>BOND
     1    18    19    1
     2    19    20   ar
     3    20    21   ar
     4    21    22   ar
     5    22     1    1
     6     1     2    2
     7     1     3   am
     8     3    24    1
     9    24    25    1
    10    25    26   ar
    11    26    27   ar
    12    27    28   ar
    13    28    29   ar
    14    29    31    1
    15    31    32    1
    16    32    33    1
    17    32    34    1
    18    32    35    1
    19    29    30   ar
    20     4     3    1
    21     4     5    1
    22     6     5    1
    23     6     7    1
    24     7     8    1
    25     8    12    1
    26    12    13    1
    27    13    14    1
    28    14    15    1
    29    14    16    1
    30    14    17    1
    31     8     9    1
    32    10     9    1
    33    10    11    1
    34    22    23   ar
    35    23    19   ar
    36    30    25   ar
    37    11     4    1
    38    10     6    1
