@<TRIPOS>MOLECULE
*****
 29 30 0 0 0
SMALL
GASTEIGER

@<TRIPOS>ATOM
      1 N          61.5064   88.8554   11.8968 N.3     1  UNL1       -0.1701
      2 H          60.8180   89.4987   11.5059 H       1  UNL1        0.1494
      3 S          62.6589   89.6903   12.3708 S.O2    1  UNL1        0.0608
      4 O          61.9854   89.8657   13.6995 O.2     1  UNL1       -0.1530
      5 O          63.3325   89.5148   11.0421 O.2     1  UNL1       -0.1530
      6 C          64.5229   90.1687   14.1163 C.ar    1  UNL1        0.0719
      7 C          65.6754   91.0035   14.5903 C.ar    1  UNL1        0.0059
      8 C          66.1166   92.1948   13.7926 C.ar    1  UNL1        0.0002
      9 C          65.4052   92.5513   12.5211 C.ar    1  UNL1        0.0014
     10 C          64.2527   91.7164   12.0471 C.ar    1  UNL1        0.0200
     11 C          63.8115   90.5251   12.8448 C.ar    1  UNL1        0.1263
     12 C          62.9104   87.9798   17.0075 C.3     1  UNL1        0.1109
     13 N          63.3516   89.1711   16.2098 N.am    1  UNL1       -0.2991
     14 C          64.0817   88.9774   14.9140 C.2     1  UNL1        0.2472
     15 O          64.3706   87.5924   14.4157 O.2     1  UNL1       -0.2701
     16 H          63.1619   90.0801   16.5369 H       1  UNL1        0.1498
     17 C          61.7285   87.7834   10.8714 C.3     1  UNL1        0.1763
     18 C          61.9747   86.3690   11.3063 C.2     1  UNL1        0.2439
     19 O          61.4175   85.2302   10.5048 O.2     1  UNL1       -0.2732
     20 N          62.7781   86.0937   12.5427 N.am    1  UNL1       -0.2827
     21 H          63.1438   86.8412   13.0688 H       1  UNL1        0.1549
     22 C          63.0243   84.6794   12.9777 C.ar    1  UNL1        0.0505
     23 C          63.9305   83.7945   12.1740 C.ar    1  UNL1        0.0178
     24 C          64.1766   82.3802   12.6089 C.ar    1  UNL1        0.0379
     25 C          63.5167   81.8508   13.8476 C.ar    1  UNL1        0.1338
     26 O          63.7629   80.4365   14.2825 O.3     1  UNL1       -0.5055
     27 C          62.6105   82.7357   14.6512 C.ar    1  UNL1        0.0379
     28 C          62.3643   84.1500   14.2162 C.ar    1  UNL1        0.0178
     29 H          64.3289   79.8838   13.7805 H       1  UNL1        0.2922
@<TRIPOS>BOND
     1    12    13    1
     2    13    14   am
     3    14    15    2
     4    14     6    1
     5     6     7   ar
     6     7     8   ar
     7     8     9   ar
     8     9    10   ar
     9    10    11   ar
    10    11     3    1
    11     3     4    2
    12     3     5    2
    13     3     1    1
    14     1    17    1
    15    17    18    1
    16    18    19    2
    17    18    20   am
    18    20    22    1
    19    22    23   ar
    20    23    24   ar
    21    24    25   ar
    22    25    26    1
    23    25    27   ar
    24    27    28   ar
    25    11     6   ar
    26    28    22   ar
    27    13    16    1
    28     1     2    1
    29    20    21    1
    30    26    29    1
@<TRIPOS>MOLECULE
*****
 29 30 0 0 0
SMALL
GASTEIGER

@<TRIPOS>ATOM
      1 N          63.3127   87.5393   15.9986 N.3     1  UNL1       -0.1701
      2 H          62.3348   87.3573   15.7728 H       1  UNL1        0.1494
      3 S          63.7547   88.6755   15.1248 S.O2    1  UNL1        0.0608
      4 O          62.6980   89.5516   15.7295 O.2     1  UNL1       -0.1530
      5 O          64.8114   87.7994   14.5202 O.2     1  UNL1       -0.1530
      6 C          63.5923   89.9903   12.8898 C.ar    1  UNL1        0.0719
      7 C          64.0344   91.1264   12.0161 C.ar    1  UNL1        0.0059
      8 C          65.0810   92.0841   12.5034 C.ar    1  UNL1        0.0002
      9 C          65.6855   91.9056   13.8645 C.ar    1  UNL1        0.0014
     10 C          65.2434   90.7694   14.7383 C.ar    1  UNL1        0.0200
     11 C          64.1968   89.8117   14.2510 C.ar    1  UNL1        0.1263
     12 C          61.8984   86.7185   11.4147 C.3     1  UNL1        0.1109
     13 N          62.9450   87.6762   11.9020 N.am    1  UNL1       -0.2991
     14 C          62.5457   89.0326   12.4025 C.2     1  UNL1        0.2472
     15 O          61.0998   89.4314   12.4158 O.2     1  UNL1       -0.2701
     16 H          63.8940   87.4144   11.8933 H       1  UNL1        0.1498
     17 C          64.0250   86.2209   15.9322 C.3     1  UNL1        0.1763
     18 C          63.5891   85.1820   14.9418 C.2     1  UNL1        0.2439
     19 O          62.1393   84.8142   14.8298 O.2     1  UNL1       -0.2732
     20 N          64.6032   84.5111   14.0634 N.am    1  UNL1       -0.2827
     21 H          65.5548   84.7525   14.1369 H       1  UNL1        0.1549
     22 C          64.1674   83.4723   13.0730 C.ar    1  UNL1        0.0505
     23 C          63.6204   82.1608   13.5534 C.ar    1  UNL1        0.0178
     24 C          63.1846   81.1220   12.5630 C.ar    1  UNL1        0.0379
     25 C          63.2958   81.3946   11.0922 C.ar    1  UNL1        0.1338
     26 O          62.8600   80.3558   10.1018 O.3     1  UNL1       -0.5055
     27 C          63.8428   82.7061   10.6118 C.ar    1  UNL1        0.0379
     28 C          64.2786   83.7449   11.6022 C.ar    1  UNL1        0.0178
     29 H          62.5183   79.5365   10.4019 H       1  UNL1        0.2922
@<TRIPOS>BOND
     1    12    13    1
     2    13    14   am
     3    14    15    2
     4    14     6    1
     5     6     7   ar
     6     7     8   ar
     7     8     9   ar
     8     9    10   ar
     9    10    11   ar
    10    11     3    1
    11     3     4    2
    12     3     5    2
    13     3     1    1
    14     1    17    1
    15    17    18    1
    16    18    19    2
    17    18    20   am
    18    20    22    1
    19    22    23   ar
    20    23    24   ar
    21    24    25   ar
    22    25    26    1
    23    25    27   ar
    24    27    28   ar
    25    11     6   ar
    26    28    22   ar
    27    13    16    1
    28     1     2    1
    29    20    21    1
    30    26    29    1
@<TRIPOS>MOLECULE
*****
 29 30 0 0 0
SMALL
GASTEIGER

@<TRIPOS>ATOM
      1 N          61.9662   89.2604   12.1662 N.3     1  UNL1       -0.1701
      2 H          62.5359   88.5376   12.6060 H       1  UNL1        0.1494
      3 S          61.3558   88.6454   10.9418 S.O2    1  UNL1        0.0608
      4 O          60.1590   88.2321   11.7461 O.2     1  UNL1       -0.1530
      5 O          62.5526   89.0587   10.1376 O.2     1  UNL1       -0.1530
      6 C          61.0394   86.6012    9.3698 C.ar    1  UNL1        0.0719
      7 C          60.4290   85.9863    8.1454 C.ar    1  UNL1        0.0059
      8 C          59.5246   86.8006    7.2685 C.ar    1  UNL1        0.0002
      9 C          59.2307   88.2299    7.6160 C.ar    1  UNL1        0.0014
     10 C          59.8410   88.8448    8.8404 C.ar    1  UNL1        0.0200
     11 C          60.7454   88.0304    9.7173 C.ar    1  UNL1        0.1263
     12 C          62.6445   84.9652   12.6098 C.3     1  UNL1        0.1109
     13 N          61.7402   85.7796   11.7328 N.am    1  UNL1       -0.2991
     14 C          61.9437   85.7869   10.2468 C.2     1  UNL1        0.2472
     15 O          63.0517   84.9798    9.6376 O.2     1  UNL1       -0.2701
     16 H          61.0130   86.3093   12.1327 H       1  UNL1        0.1498
     17 C          62.8327   90.4784   12.0413 C.3     1  UNL1        0.1763
     18 C          64.0127   90.6558   12.9503 C.2     1  UNL1        0.2439
     19 O          64.4155   89.5504   13.8807 O.2     1  UNL1       -0.2732
     20 N          64.7897   91.9386   12.9288 N.am    1  UNL1       -0.2827
     21 H          64.5253   92.6642   12.3182 H       1  UNL1        0.1549
     22 C          65.9697   92.1161   13.8378 C.ar    1  UNL1        0.0505
     23 C          67.3609   91.9511   13.3017 C.ar    1  UNL1        0.0178
     24 C          68.5408   92.1285   14.2106 C.ar    1  UNL1        0.0379
     25 C          68.3296   92.4709   15.6557 C.ar    1  UNL1        0.1338
     26 O          69.5096   92.6483   16.5646 O.3     1  UNL1       -0.5055
     27 C          66.9384   92.6358   16.1918 C.ar    1  UNL1        0.0379
     28 C          65.7585   92.4584   15.2828 C.ar    1  UNL1        0.0178
     29 H          70.3786   92.5453   16.2297 H       1  UNL1        0.2922
@<TRIPOS>BOND
     1    12    13    1
     2    13    14   am
     3    14    15    2
     4    14     6    1
     5     6     7   ar
     6     7     8   ar
     7     8     9   ar
     8     9    10   ar
     9    10    11   ar
    10    11     3    1
    11     3     4    2
    12     3     5    2
    13     3     1    1
    14     1    17    1
    15    17    18    1
    16    18    19    2
    17    18    20   am
    18    20    22    1
    19    22    23   ar
    20    23    24   ar
    21    24    25   ar
    22    25    26    1
    23    25    27   ar
    24    27    28   ar
    25    11     6   ar
    26    28    22   ar
    27    13    16    1
    28     1     2    1
    29    20    21    1
    30    26    29    1
@<TRIPOS>MOLECULE
*****
 29 30 0 0 0
SMALL
GASTEIGER

@<TRIPOS>ATOM
      1 N          63.3326   88.8002   15.2408 N.3     1  UNL1       -0.1701
      2 H          62.4294   88.3489   15.0964 H       1  UNL1        0.1494
      3 S          63.5793   89.6684   14.0428 S.O2    1  UNL1        0.0608
      4 O          63.8848   88.4501   13.2228 O.2     1  UNL1       -0.1530
      5 O          63.2737   90.8867   14.8627 O.2     1  UNL1       -0.1530
      6 C          62.9661   90.3925   11.6241 C.ar    1  UNL1        0.0719
      7 C          63.2127   91.2607   10.4261 C.ar    1  UNL1        0.0059
      8 C          64.3193   92.2732   10.4487 C.ar    1  UNL1        0.0002
      9 C          65.1792   92.4174   11.6692 C.ar    1  UNL1        0.0014
     10 C          64.9325   91.5491   12.8672 C.ar    1  UNL1        0.0200
     11 C          63.8259   90.5367   12.8447 C.ar    1  UNL1        0.1263
     12 C          60.9408   87.0673   10.8552 C.3     1  UNL1        0.1109
     13 N          62.0473   88.0798   10.8777 N.am    1  UNL1       -0.2991
     14 C          61.8595   89.3800   11.6016 C.2     1  UNL1        0.2472
     15 O          60.5652   89.6679   12.3028 O.2     1  UNL1       -0.2701
     16 H          62.8968   87.8908   10.4175 H       1  UNL1        0.1498
     17 C          64.3069   87.7160   15.5947 C.3     1  UNL1        0.1763
     18 C          63.9332   86.2771   15.3940 C.2     1  UNL1        0.2439
     19 O          63.6483   85.4038   16.5797 O.2     1  UNL1       -0.2732
     20 N          63.8445   85.7117   14.0075 N.am    1  UNL1       -0.2827
     21 H          64.0315   86.2849   13.2292 H       1  UNL1        0.1549
     22 C          63.4709   84.2729   13.8067 C.ar    1  UNL1        0.0505
     23 C          64.2049   83.4413   12.7970 C.ar    1  UNL1        0.0178
     24 C          63.8313   82.0025   12.5963 C.ar    1  UNL1        0.0379
     25 C          62.7235   81.3954   13.4053 C.ar    1  UNL1        0.1338
     26 O          62.3499   79.9566   13.2045 O.3     1  UNL1       -0.5055
     27 C          61.9895   82.2270   14.4150 C.ar    1  UNL1        0.0379
     28 C          62.3632   83.6659   14.6157 C.ar    1  UNL1        0.0178
     29 H          62.8084   79.4371   12.5738 H       1  UNL1        0.2922
@<TRIPOS>BOND
     1    12    13    1
     2    13    14   am
     3    14    15    2
     4    14     6    1
     5     6     7   ar
     6     7     8   ar
     7     8     9   ar
     8     9    10   ar
     9    10    11   ar
    10    11     3    1
    11     3     4    2
    12     3     5    2
    13     3     1    1
    14     1    17    1
    15    17    18    1
    16    18    19    2
    17    18    20   am
    18    20    22    1
    19    22    23   ar
    20    23    24   ar
    21    24    25   ar
    22    25    26    1
    23    25    27   ar
    24    27    28   ar
    25    11     6   ar
    26    28    22   ar
    27    13    16    1
    28     1     2    1
    29    20    21    1
    30    26    29    1
@<TRIPOS>MOLECULE
*****
 29 30 0 0 0
SMALL
GASTEIGER

@<TRIPOS>ATOM
      1 N          63.3152   88.4106   12.3200 N.3     1  UNL1       -0.1701
      2 H          64.2933   88.4287   12.0312 H       1  UNL1        0.1494
      3 S          62.5348   87.8444   11.1709 S.O2    1  UNL1        0.0608
      4 O          62.8460   89.0659   10.3578 O.2     1  UNL1       -0.1530
      5 O          62.2237   86.6230   11.9841 O.2     1  UNL1       -0.1530
      6 C          60.3368   87.7111    9.7922 C.ar    1  UNL1        0.0719
      7 C          59.5564   87.1448    8.6431 C.ar    1  UNL1        0.0059
      8 C          60.1938   86.1456    7.7237 C.ar    1  UNL1        0.0002
      9 C          61.6114   85.7127    7.9533 C.ar    1  UNL1        0.0014
     10 C          62.3917   86.2789    9.1023 C.ar    1  UNL1        0.0200
     11 C          61.7544   87.2782   10.0218 C.ar    1  UNL1        0.1263
     12 C          58.5304   89.2705   12.9632 C.3     1  UNL1        0.1109
     13 N          59.1677   88.2713   12.0438 N.am    1  UNL1       -0.2991
     14 C          59.6994   88.7103   10.7117 C.2     1  UNL1        0.2472
     15 O          59.5938   90.1485   10.2990 O.2     1  UNL1       -0.2701
     16 H          59.2371   87.3273   12.3146 H       1  UNL1        0.1498
     17 C          62.9929   89.7787   12.8438 C.3     1  UNL1        0.1763
     18 C          64.1004   90.7154   13.2263 C.2     1  UNL1        0.2439
     19 O          64.2877   92.0011   12.4767 O.2     1  UNL1       -0.2732
     20 N          65.0204   90.3664   14.3584 N.am    1  UNL1       -0.2827
     21 H          64.8974   89.5225   14.8504 H       1  UNL1        0.1549
     22 C          66.1278   91.3030   14.7410 C.ar    1  UNL1        0.0505
     23 C          67.3680   91.3809   13.9009 C.ar    1  UNL1        0.0178
     24 C          68.4754   92.3175   14.2834 C.ar    1  UNL1        0.0379
     25 C          68.3426   93.1763   15.5061 C.ar    1  UNL1        0.1338
     26 O          69.4500   94.1130   15.8886 O.3     1  UNL1       -0.5055
     27 C          67.1023   93.0985   16.3462 C.ar    1  UNL1        0.0379
     28 C          65.9949   92.1618   15.9636 C.ar    1  UNL1        0.0178
     29 H          70.2247   94.1616   15.3639 H       1  UNL1        0.2922
@<TRIPOS>BOND
     1    12    13    1
     2    13    14   am
     3    14    15    2
     4    14     6    1
     5     6     7   ar
     6     7     8   ar
     7     8     9   ar
     8     9    10   ar
     9    10    11   ar
    10    11     3    1
    11     3     4    2
    12     3     5    2
    13     3     1    1
    14     1    17    1
    15    17    18    1
    16    18    19    2
    17    18    20   am
    18    20    22    1
    19    22    23   ar
    20    23    24   ar
    21    24    25   ar
    22    25    26    1
    23    25    27   ar
    24    27    28   ar
    25    11     6   ar
    26    28    22   ar
    27    13    16    1
    28     1     2    1
    29    20    21    1
    30    26    29    1
@<TRIPOS>MOLECULE
*****
 29 30 0 0 0
SMALL
GASTEIGER

@<TRIPOS>ATOM
      1 N          60.5642   89.4765   11.0810 N.3     1  UNL1       -0.1701
      2 H          59.5500   89.4011   11.1600 H       1  UNL1        0.1494
      3 S          61.0240   88.3009   10.2708 S.O2    1  UNL1        0.0608
      4 O          61.7367   89.2275    9.3309 O.2     1  UNL1       -0.1530
      5 O          60.3113   87.3743   11.2108 O.2     1  UNL1       -0.1530
      6 C          60.7796   86.7726    8.1841 C.ar    1  UNL1        0.0719
      7 C          61.2394   85.5969    7.3739 C.ar    1  UNL1        0.0059
      8 C          62.4035   84.7739    7.8403 C.ar    1  UNL1        0.0002
      9 C          63.1078   85.1266    9.1169 C.ar    1  UNL1        0.0014
     10 C          62.6480   86.3022    9.9270 C.ar    1  UNL1        0.0200
     11 C          61.4838   87.1252    9.4606 C.ar    1  UNL1        0.1263
     12 C          58.6860   89.7546    6.6112 C.3     1  UNL1        0.1109
     13 N          59.8501   88.9316    7.0776 N.am    1  UNL1       -0.2991
     14 C          59.6155   87.5955    7.7177 C.2     1  UNL1        0.2472
     15 O          58.2167   87.0824    7.8914 O.2     1  UNL1       -0.2701
     16 H          60.7681   89.2684    6.9635 H       1  UNL1        0.1498
     17 C          61.0925   89.6831   12.4696 C.3     1  UNL1        0.1763
     18 C          62.5607   89.8984   12.6891 C.2     1  UNL1        0.2439
     19 O          63.4969   88.7265   12.7017 O.2     1  UNL1       -0.2732
     20 N          63.0926   91.2856   12.8960 N.am    1  UNL1       -0.2827
     21 H          62.4781   92.0547   12.8877 H       1  UNL1        0.1549
     22 C          64.5607   91.5009   13.1155 C.ar    1  UNL1        0.0505
     23 C          65.3854   92.1779   12.0612 C.ar    1  UNL1        0.0178
     24 C          66.8535   92.3932   12.2807 C.ar    1  UNL1        0.0379
     25 C          67.4970   91.9315   13.5546 C.ar    1  UNL1        0.1338
     26 O          68.9652   92.1468   13.7741 O.3     1  UNL1       -0.5055
     27 C          66.6724   91.2545   14.6089 C.ar    1  UNL1        0.0379
     28 C          65.2042   91.0392   14.3894 C.ar    1  UNL1        0.0178
     29 H          69.4803   92.5697   13.1155 H       1  UNL1        0.2922
@<TRIPOS>BOND
     1    12    13    1
     2    13    14   am
     3    14    15    2
     4    14     6    1
     5     6     7   ar
     6     7     8   ar
     7     8     9   ar
     8     9    10   ar
     9    10    11   ar
    10    11     3    1
    11     3     4    2
    12     3     5    2
    13     3     1    1
    14     1    17    1
    15    17    18    1
    16    18    19    2
    17    18    20   am
    18    20    22    1
    19    22    23   ar
    20    23    24   ar
    21    24    25   ar
    22    25    26    1
    23    25    27   ar
    24    27    28   ar
    25    11     6   ar
    26    28    22   ar
    27    13    16    1
    28     1     2    1
    29    20    21    1
    30    26    29    1
@<TRIPOS>MOLECULE
*****
 29 30 0 0 0
SMALL
GASTEIGER

@<TRIPOS>ATOM
      1 N          64.0612   86.0561   16.1016 N.3     1  UNL1       -0.1701
      2 H          64.9497   86.4592   15.8040 H       1  UNL1        0.1494
      3 S          63.7310   84.9670   15.1245 S.O2    1  UNL1        0.0608
      4 O          62.2968   85.0095   15.5618 O.2     1  UNL1       -0.1530
      5 O          65.1652   84.9244   14.6873 O.2     1  UNL1       -0.1530
      6 C          62.8548   84.2245   12.7941 C.ar    1  UNL1        0.0719
      7 C          62.5246   83.1353   11.8171 C.ar    1  UNL1        0.0059
      8 C          62.7405   81.6994   12.1934 C.ar    1  UNL1        0.0002
      9 C          63.2866   81.3527   13.5467 C.ar    1  UNL1        0.0014
     10 C          63.6167   82.4419   14.5237 C.ar    1  UNL1        0.0200
     11 C          63.4008   83.8778   14.1474 C.ar    1  UNL1        0.1263
     12 C          61.2574   87.4782   11.1780 C.3     1  UNL1        0.1109
     13 N          61.4733   86.0423   11.5543 N.am    1  UNL1       -0.2991
     14 C          62.6388   85.6604   12.4178 C.2     1  UNL1        0.2472
     15 O          63.5884   86.7143   12.9050 O.2     1  UNL1       -0.2701
     16 H          60.8501   85.3505   11.2345 H       1  UNL1        0.1498
     17 C          63.1112   87.2000   16.2989 C.3     1  UNL1        0.1763
     18 C          63.3934   88.5279   15.6608 C.2     1  UNL1        0.2439
     19 O          62.5470   89.7186   16.0011 O.2     1  UNL1       -0.2732
     20 N          64.5220   88.6651   14.6823 N.am    1  UNL1       -0.2827
     21 H          65.0775   87.8836   14.4589 H       1  UNL1        0.1549
     22 C          64.8042   89.9929   14.0441 C.ar    1  UNL1        0.0505
     23 C          65.8272   90.9112   14.6443 C.ar    1  UNL1        0.0178
     24 C          66.1094   92.2389   14.0062 C.ar    1  UNL1        0.0379
     25 C          65.3686   92.6485   12.7678 C.ar    1  UNL1        0.1338
     26 O          65.6508   93.9763   12.1297 O.3     1  UNL1       -0.5055
     27 C          64.3456   91.7302   12.1676 C.ar    1  UNL1        0.0379
     28 C          64.0634   90.4024   12.8058 C.ar    1  UNL1        0.0178
     29 H          66.2899   94.5499   12.5046 H       1  UNL1        0.2922
@<TRIPOS>BOND
     1    12    13    1
     2    13    14   am
     3    14    15    2
     4    14     6    1
     5     6     7   ar
     6     7     8   ar
     7     8     9   ar
     8     9    10   ar
     9    10    11   ar
    10    11     3    1
    11     3     4    2
    12     3     5    2
    13     3     1    1
    14     1    17    1
    15    17    18    1
    16    18    19    2
    17    18    20   am
    18    20    22    1
    19    22    23   ar
    20    23    24   ar
    21    24    25   ar
    22    25    26    1
    23    25    27   ar
    24    27    28   ar
    25    11     6   ar
    26    28    22   ar
    27    13    16    1
    28     1     2    1
    29    20    21    1
    30    26    29    1
@<TRIPOS>MOLECULE
*****
 29 30 0 0 0
SMALL
GASTEIGER

@<TRIPOS>ATOM
      1 N          62.8557   89.1278   12.0798 N.3     1  UNL1       -0.1701
      2 H          63.8007   88.8091   11.8656 H       1  UNL1        0.1494
      3 S          61.9736   88.6460   10.9664 S.O2    1  UNL1        0.0608
      4 O          63.1617   88.5811   10.0531 O.2     1  UNL1       -0.1530
      5 O          60.7855   88.7110   11.8797 O.2     1  UNL1       -0.1530
      6 C          61.0132   86.6998    9.5382 C.ar    1  UNL1        0.0719
      7 C          60.1310   86.2180    8.4248 C.ar    1  UNL1        0.0059
      8 C          59.3269   87.2008    7.6263 C.ar    1  UNL1        0.0002
      9 C          59.4050   88.6653    7.9411 C.ar    1  UNL1        0.0014
     10 C          60.2872   89.1470    9.0545 C.ar    1  UNL1        0.0200
     11 C          61.0913   88.1642    9.8530 C.ar    1  UNL1        0.1263
     12 C          63.6622   83.8919   10.4593 C.3     1  UNL1        0.1109
     13 N          62.8581   84.8746    9.6607 N.am    1  UNL1       -0.2991
     14 C          61.8173   85.7170   10.3367 C.2     1  UNL1        0.2472
     15 O          61.5805   85.5766   11.8112 O.2     1  UNL1       -0.2701
     16 H          63.0135   84.9667    8.6930 H       1  UNL1        0.1498
     17 C          62.9510   90.5943   12.3802 C.3     1  UNL1        0.1763
     18 C          63.7520   91.4928   11.4850 C.2     1  UNL1        0.2439
     19 O          63.2950   91.7528   10.0802 O.2     1  UNL1       -0.2732
     20 N          65.0101   92.1312   11.9947 N.am    1  UNL1       -0.2827
     21 H          65.3100   91.9605   12.9167 H       1  UNL1        0.1549
     22 C          65.8111   93.0296   11.0996 C.ar    1  UNL1        0.0505
     23 C          65.4775   94.4892   11.0094 C.ar    1  UNL1        0.0178
     24 C          66.2786   95.3876   10.1143 C.ar    1  UNL1        0.0379
     25 C          67.4132   94.8264    9.3094 C.ar    1  UNL1        0.1338
     26 O          68.2142   95.7248    8.4143 O.3     1  UNL1       -0.5055
     27 C          67.7467   93.3667    9.3997 C.ar    1  UNL1        0.0379
     28 C          66.9456   92.4683   10.2948 C.ar    1  UNL1        0.0178
     29 H          68.0058   96.6366    8.3579 H       1  UNL1        0.2922
@<TRIPOS>BOND
     1    12    13    1
     2    13    14   am
     3    14    15    2
     4    14     6    1
     5     6     7   ar
     6     7     8   ar
     7     8     9   ar
     8     9    10   ar
     9    10    11   ar
    10    11     3    1
    11     3     4    2
    12     3     5    2
    13     3     1    1
    14     1    17    1
    15    17    18    1
    16    18    19    2
    17    18    20   am
    18    20    22    1
    19    22    23   ar
    20    23    24   ar
    21    24    25   ar
    22    25    26    1
    23    25    27   ar
    24    27    28   ar
    25    11     6   ar
    26    28    22   ar
    27    13    16    1
    28     1     2    1
    29    20    21    1
    30    26    29    1
@<TRIPOS>MOLECULE
*****
 29 30 0 0 0
SMALL
GASTEIGER

@<TRIPOS>ATOM
      1 N          63.9961   84.3383    9.6785 N.3     1  UNL1       -0.1701
      2 H          64.7179   83.8522    9.1464 H       1  UNL1        0.1494
      3 S          63.5651   83.4080   10.7734 S.O2    1  UNL1        0.0608
      4 O          64.9921   82.9978   10.9866 O.2     1  UNL1       -0.1530
      5 O          62.1382   83.8183   10.5602 O.2     1  UNL1       -0.1530
      6 C          62.9362   82.9991   13.2609 C.ar    1  UNL1        0.0719
      7 C          62.5051   82.0689   14.3558 C.ar    1  UNL1        0.0059
      8 C          62.2718   80.6173   14.0582 C.ar    1  UNL1        0.0002
      9 C          62.4696   80.0960   12.6657 C.ar    1  UNL1        0.0014
     10 C          62.9007   81.0262   11.5708 C.ar    1  UNL1        0.0200
     11 C          63.1340   82.4778   11.8684 C.ar    1  UNL1        0.1263
     12 C          64.5204   86.3104   14.7696 C.3     1  UNL1        0.1109
     13 N          64.2871   84.8588   14.4720 N.am    1  UNL1       -0.2991
     14 C          63.1695   84.4507   13.5585 C.2     1  UNL1        0.2472
     15 O          62.2853   85.4941   12.9427 O.2     1  UNL1       -0.2701
     16 H          64.8675   84.1740   14.8762 H       1  UNL1        0.1498
     17 C          62.9922   84.8437    8.6852 C.3     1  UNL1        0.1763
     18 C          62.1295   86.0229    9.0247 C.2     1  UNL1        0.2439
     19 O          60.9705   86.3829    8.1431 O.2     1  UNL1       -0.2732
     20 N          62.4258   86.8422   10.2458 N.am    1  UNL1       -0.2827
     21 H          63.1864   86.6060   10.8244 H       1  UNL1        0.1549
     22 C          61.5631   88.0214   10.5852 C.ar    1  UNL1        0.0505
     23 C          62.0320   89.4102   10.2668 C.ar    1  UNL1        0.0178
     24 C          61.1694   90.5894   10.6062 C.ar    1  UNL1        0.0379
     25 C          59.8377   90.3798   11.2642 C.ar    1  UNL1        0.1338
     26 O          58.9751   91.5590   11.6037 O.3     1  UNL1       -0.5055
     27 C          59.3688   88.9911   11.5827 C.ar    1  UNL1        0.0379
     28 C          60.2315   87.8118   11.2431 C.ar    1  UNL1        0.0178
     29 H          59.2680   92.4265   11.4047 H       1  UNL1        0.2922
@<TRIPOS>BOND
     1    12    13    1
     2    13    14   am
     3    14    15    2
     4    14     6    1
     5     6     7   ar
     6     7     8   ar
     7     8     9   ar
     8     9    10   ar
     9    10    11   ar
    10    11     3    1
    11     3     4    2
    12     3     5    2
    13     3     1    1
    14     1    17    1
    15    17    18    1
    16    18    19    2
    17    18    20   am
    18    20    22    1
    19    22    23   ar
    20    23    24   ar
    21    24    25   ar
    22    25    26    1
    23    25    27   ar
    24    27    28   ar
    25    11     6   ar
    26    28    22   ar
    27    13    16    1
    28     1     2    1
    29    20    21    1
    30    26    29    1
