@<TRIPOS>MOLECULE
*****
 27 31 0 0 0
SMALL
GASTEIGER

@<TRIPOS>ATOM
      1 C          64.0363   84.5556   14.2986 C.3     1  UNL1        0.0040
      2 C          63.3205   84.0390   13.0859 C.3     1  UNL1        0.0150
      3 C          63.8297   83.0805   14.1212 C.3     1  UNL1        0.0062
      4 C          63.6230   81.6055   13.9439 C.3     1  UNL1        0.0299
      5 C          62.9073   81.0889   12.7311 C.3     1  UNL1        0.1145
      6 O          62.7007   79.6138   12.5537 O.3     1  UNL1       -0.3841
      7 C          62.3981   82.0474   11.6957 C.3     1  UNL1        0.0509
      8 C          62.6047   83.5224   11.8731 C.2     1  UNL1       -0.0467
      9 C          62.0955   84.4810   10.8377 C.2     1  UNL1       -0.0345
     10 C          62.3021   85.9560   11.0151 C.3     1  UNL1        0.0254
     11 C          63.0179   86.4726   12.2279 C.3     1  UNL1        0.0052
     12 C          63.5271   85.5141   13.2632 C.3     1  UNL1        0.0038
     13 C          64.2429   86.0307   14.4760 C.3     1  UNL1        0.0006
     14 C          64.4495   87.5057   14.6534 C.3     1  UNL1        0.0041
     15 C          63.9403   88.4643   13.6180 C.3     1  UNL1        0.0190
     16 C          64.6339   89.1248   14.7724 C.3     1  UNL1        0.0044
     17 C          63.9953   89.9601   13.5216 C.2     1  UNL1       -0.0255
     18 C          63.3136   90.3681   12.2493 C.2     1  UNL1       -0.0303
     19 C          62.8372   89.1243   11.5594 C.3     1  UNL1        0.0260
     20 C          63.2245   87.9477   12.4052 C.3     1  UNL1        0.0084
     21 H          63.0873   79.1403   13.3069 H       1  UNL1        0.2103
     22 C          64.6221   90.8856   14.5220 C.ar    1  UNL1        0.0149
     23 C          66.0142   91.3984   14.3001 C.ar    1  UNL1        0.0028
     24 C          66.6408   92.3239   15.3004 C.ar    1  UNL1        0.0207
     25 C          65.8755   92.7367   16.5227 C.ar    1  UNL1        0.0989
     26 N          64.4834   92.2239   16.7445 N.ar    1  UNL1       -0.2423
     27 C          63.8567   91.2984   15.7442 C.ar    1  UNL1        0.0985
@<TRIPOS>BOND
     1     2     1    1
     2     2     3    1
     3     3     4    1
     4     4     5    1
     5     5     6    1
     6     5     7    1
     7     7     8    1
     8     8     9    2
     9     9    10    1
    10    11    10    1
    11    11    12    1
    12    12    13    1
    13    13    14    1
    14    14    15    1
    15    15    16    1
    16    15    17    1
    17    17    22    1
    18    22    23   ar
    19    23    24   ar
    20    24    25   ar
    21    25    26   ar
    22    26    27   ar
    23    17    18    2
    24    18    19    1
    25    20    19    1
    26     8     2    1
    27    20    11    1
    28    12     2    1
    29    20    15    1
    30    27    22   ar
    31     6    21    1
@<TRIPOS>MOLECULE
*****
 27 31 0 0 0
SMALL
GASTEIGER

@<TRIPOS>ATOM
      1 C          61.5473   89.7202   10.0073 C.3     1  UNL1        0.0040
      2 C          61.1585   88.2859    9.8035 C.3     1  UNL1        0.0150
      3 C          60.6401   89.3428    8.8740 C.3     1  UNL1        0.0062
      4 C          59.7328   88.9653    7.7407 C.3     1  UNL1        0.0299
      5 C          59.3440   87.5310    7.5370 C.3     1  UNL1        0.1145
      6 O          58.4367   87.1536    6.4036 O.3     1  UNL1       -0.3841
      7 C          59.8625   86.4741    8.4666 C.3     1  UNL1        0.0509
      8 C          60.7697   86.8516    9.5998 C.2     1  UNL1       -0.0467
      9 C          61.2883   85.7946   10.5295 C.2     1  UNL1       -0.0345
     10 C          62.1955   86.1721   11.6627 C.3     1  UNL1        0.0254
     11 C          62.5843   87.6064   11.8665 C.3     1  UNL1        0.0052
     12 C          62.0659   88.6633   10.9369 C.3     1  UNL1        0.0038
     13 C          62.4547   90.0977   11.1406 C.3     1  UNL1        0.0006
     14 C          63.3619   90.4751   12.2739 C.3     1  UNL1        0.0041
     15 C          63.8804   89.4182   13.2035 C.3     1  UNL1        0.0190
     16 C          64.3531   90.8037   13.5305 C.3     1  UNL1        0.0044
     17 C          64.7834   89.4884   14.3991 C.2     1  UNL1       -0.0255
     18 C          64.9527   88.0974   14.9344 C.2     1  UNL1       -0.0303
     19 C          64.1543   87.1676   14.0695 C.3     1  UNL1        0.0260
     20 C          63.4916   87.9839   12.9998 C.3     1  UNL1        0.0084
     21 H          58.1955   87.9491    5.9039 H       1  UNL1        0.2103
     22 C          65.4076   90.7313   14.9610 C.ar    1  UNL1        0.0149
     23 C          66.7721   91.1568   14.5061 C.ar    1  UNL1        0.0028
     24 C          67.3962   92.3997   15.0680 C.ar    1  UNL1        0.0207
     25 C          66.6558   93.2171   16.0847 C.ar    1  UNL1        0.0989
     26 N          65.2912   92.7915   16.5395 N.ar    1  UNL1       -0.2423
     27 C          64.6671   91.5486   15.9777 C.ar    1  UNL1        0.0985
@<TRIPOS>BOND
     1     2     1    1
     2     2     3    1
     3     3     4    1
     4     4     5    1
     5     5     6    1
     6     5     7    1
     7     7     8    1
     8     8     9    2
     9     9    10    1
    10    11    10    1
    11    11    12    1
    12    12    13    1
    13    13    14    1
    14    14    15    1
    15    15    16    1
    16    15    17    1
    17    17    22    1
    18    22    23   ar
    19    23    24   ar
    20    24    25   ar
    21    25    26   ar
    22    26    27   ar
    23    17    18    2
    24    18    19    1
    25    20    19    1
    26     8     2    1
    27    20    11    1
    28    12     2    1
    29    20    15    1
    30    27    22   ar
    31     6    21    1
@<TRIPOS>MOLECULE
*****
 27 31 0 0 0
SMALL
GASTEIGER

@<TRIPOS>ATOM
      1 C          64.7831   88.7533   14.5239 C.3     1  UNL1        0.0040
      2 C          64.4888   89.9011   13.6041 C.3     1  UNL1        0.0150
      3 C          65.2840   90.1278   14.8556 C.3     1  UNL1        0.0062
      4 C          65.7848   91.5022   15.1873 C.3     1  UNL1        0.0299
      5 C          65.4905   92.6500   14.2675 C.3     1  UNL1        0.1145
      6 O          65.9914   94.0244   14.5993 O.3     1  UNL1       -0.3841
      7 C          64.6953   92.4233   13.0160 C.3     1  UNL1        0.0509
      8 C          64.1945   91.0489   12.6843 C.2     1  UNL1       -0.0467
      9 C          63.3993   90.8222   11.4327 C.2     1  UNL1       -0.0345
     10 C          62.8984   89.4478   11.1010 C.3     1  UNL1        0.0254
     11 C          63.1928   88.3000   12.0208 C.3     1  UNL1        0.0052
     12 C          63.9879   88.5266   13.2723 C.3     1  UNL1        0.0038
     13 C          64.2822   87.3789   14.1921 C.3     1  UNL1        0.0006
     14 C          63.7814   86.0045   13.8604 C.3     1  UNL1        0.0041
     15 C          62.9862   85.7777   12.6088 C.3     1  UNL1        0.0190
     16 C          63.2007   84.5397   13.4281 C.3     1  UNL1        0.0044
     17 C          62.3655   84.5440   12.0237 C.2     1  UNL1       -0.0255
     18 C          61.6876   84.9292   10.7423 C.2     1  UNL1       -0.0303
     19 C          61.8893   86.4011   10.5355 C.3     1  UNL1        0.0260
     20 C          62.6919   86.9255   11.6890 C.3     1  UNL1        0.0084
     21 H          66.4829   93.9964   15.4351 H       1  UNL1        0.2103
     22 C          62.4142   83.1667   12.6160 C.ar    1  UNL1        0.0149
     23 C          62.9060   82.0132   11.7928 C.ar    1  UNL1        0.0028
     24 C          62.9546   80.6359   12.3852 C.ar    1  UNL1        0.0207
     25 C          62.5114   80.4122   13.8006 C.ar    1  UNL1        0.0989
     26 N          62.0196   81.5657   14.6237 N.ar    1  UNL1       -0.2423
     27 C          61.9710   82.9429   14.0314 C.ar    1  UNL1        0.0985
@<TRIPOS>BOND
     1     2     1    1
     2     2     3    1
     3     3     4    1
     4     4     5    1
     5     5     6    1
     6     5     7    1
     7     7     8    1
     8     8     9    2
     9     9    10    1
    10    11    10    1
    11    11    12    1
    12    12    13    1
    13    13    14    1
    14    14    15    1
    15    15    16    1
    16    15    17    1
    17    17    22    1
    18    22    23   ar
    19    23    24   ar
    20    24    25   ar
    21    25    26   ar
    22    26    27   ar
    23    17    18    2
    24    18    19    1
    25    20    19    1
    26     8     2    1
    27    20    11    1
    28    12     2    1
    29    20    15    1
    30    27    22   ar
    31     6    21    1
