@<TRIPOS>MOLECULE
*****
 35 38 0 0 0
SMALL
GASTEIGER

@<TRIPOS>ATOM
      1 C          61.6176   88.0238   10.4724 C.ar    1  UNL1        0.0536
      2 C          61.2034   89.4614   10.3646 C.ar    1  UNL1        0.0042
      3 C          60.4373   89.9332    9.1643 C.ar    1  UNL1       -0.0025
      4 C          60.0855   88.9674    8.0719 C.ar    1  UNL1       -0.0026
      5 C          60.4998   87.5298    8.1797 C.ar    1  UNL1       -0.0025
      6 C          61.2658   87.0580    9.3799 C.ar    1  UNL1        0.0042
      7 C          64.6731   90.5023   14.1833 C.3     1  UNL1        0.1025
      8 C          63.9071   90.9742   12.9831 C.3     1  UNL1        0.0327
      9 C          63.1439   89.9907   12.1462 C.3     1  UNL1        0.0943
     10 N          63.1468   88.5354   12.5095 N.am    1  UNL1       -0.2761
     11 C          62.3837   87.5519   11.6726 C.2     1  UNL1        0.2490
     12 O          62.3866   86.0966   12.0359 O.2     1  UNL1       -0.2699
     13 C          63.9129   88.0636   13.7097 C.3     1  UNL1        0.0943
     14 C          64.6760   89.0470   14.5466 C.3     1  UNL1        0.0327
     15 C          65.4363   91.4858   15.0202 C.2     1  UNL1        0.3167
     16 O          64.7226   92.3005   16.0579 O.2     1  UNL1       -0.2501
     17 C          67.4549   91.9534   13.4529 C.3     1  UNL1        0.2556
     18 O          66.9131   91.6546   14.8194 O.3     1  UNL1       -0.4444
     19 C          59.3195   89.4393    6.8717 C.3     1  UNL1        0.1166
     20 N          60.0349   90.1324    5.7502 N.am    1  UNL1       -0.2969
     21 C          59.3552   91.2364    4.9957 C.2     1  UNL1        0.2461
     22 O          57.9601   91.6473    5.3628 O.2     1  UNL1       -0.2701
     23 H          60.9506   89.8627    5.5093 H       1  UNL1        0.1501
     24 C          60.0707   91.9295    3.8742 C.ar    1  UNL1        0.0540
     25 C          59.3071   92.8038    2.9243 C.ar    1  UNL1        0.0061
     26 C          60.0225   93.4968    1.8028 C.ar    1  UNL1        0.0198
     27 C          61.5016   93.3156    1.6313 C.ar    1  UNL1        0.0892
     28 N          62.4707   93.8669    0.6277 N.ar    1  UNL1       -0.2245
     29 C          63.8332   93.3332    0.9574 C.ar    1  UNL1        0.1567
     30 N          65.1003   93.6287    0.2108 N.pl3   1  UNL1       -0.3375
     31 S          63.7062   92.4522    2.1647 S.2     1  UNL1       -0.0520
     32 C          62.2652   92.4413    2.5812 C.ar    1  UNL1        0.0498
     33 C          61.5498   91.7482    3.7027 C.ar    1  UNL1        0.0126
     34 H          65.0820   94.2227   -0.5741 H       1  UNL1        0.1442
     35 H          65.9501   93.2287    0.5058 H       1  UNL1        0.1442
@<TRIPOS>BOND
     1    17    18    1
     2    18    15    1
     3    15    16    2
     4    15     7    1
     5     7     8    1
     6     8     9    1
     7     9    10    1
     8    10    11   am
     9    11    12    2
    10    11     1    1
    11     1     2   ar
    12     2     3   ar
    13     3     4   ar
    14     4    19    1
    15    19    20    1
    16    20    21   am
    17    21    22    2
    18    21    24    1
    19    24    25   ar
    20    25    26   ar
    21    26    27   ar
    22    27    28   ar
    23    28    29   ar
    24    29    30    1
    25    29    31   ar
    26    31    32   ar
    27    32    33   ar
    28     4     5   ar
    29     5     6   ar
    30    10    13    1
    31    13    14    1
    32    14     7    1
    33     6     1   ar
    34    33    24   ar
    35    32    27   ar
    36    20    23    1
    37    30    34    1
    38    30    35    1
@<TRIPOS>MOLECULE
*****
 35 38 0 0 0
SMALL
GASTEIGER

@<TRIPOS>ATOM
      1 C          61.8551   87.9696   10.7646 C.ar    1  UNL1        0.0536
      2 C          61.5224   86.9984    9.6709 C.ar    1  UNL1        0.0042
      3 C          60.7107   87.4461    8.4916 C.ar    1  UNL1       -0.0025
      4 C          60.2317   88.8649    8.4060 C.ar    1  UNL1       -0.0026
      5 C          60.5643   89.8361    9.4996 C.ar    1  UNL1       -0.0025
      6 C          61.3760   89.3885   10.6789 C.ar    1  UNL1        0.0042
      7 C          63.1318   83.1326   12.8196 C.3     1  UNL1        0.1025
      8 C          62.3202   83.5802   11.6403 C.3     1  UNL1        0.0327
      9 C          62.1651   85.0433   11.3484 C.3     1  UNL1        0.0943
     10 N          62.8218   86.0588   12.2358 N.am    1  UNL1       -0.2761
     11 C          62.6667   87.5220   11.9439 C.2     1  UNL1        0.2490
     12 O          63.3234   88.5375   12.8313 O.2     1  UNL1       -0.2699
     13 C          63.6334   85.6112   13.4151 C.3     1  UNL1        0.0943
     14 C          63.7885   84.1481   13.7070 C.3     1  UNL1        0.0327
     15 C          63.2869   81.6694   13.1114 C.2     1  UNL1        0.3167
     16 O          64.6444   81.1029   13.4049 O.2     1  UNL1       -0.2501
     17 C          60.9841   80.9920   14.1054 C.3     1  UNL1        0.2556
     18 O          62.0844   80.7728   13.1098 O.3     1  UNL1       -0.4444
     19 C          59.4201   89.3126    7.2267 C.3     1  UNL1        0.1166
     20 N          60.0867   90.0121    6.0794 N.am    1  UNL1       -0.2969
     21 C          59.3354   91.0437    5.2911 C.2     1  UNL1        0.2461
     22 O          57.9173   91.3757    5.6501 O.2     1  UNL1       -0.2701
     23 H          61.0175   89.7942    5.8437 H       1  UNL1        0.1501
     24 C          60.0021   91.7432    4.1439 C.ar    1  UNL1        0.0540
     25 C          59.1936   92.6018    3.2170 C.ar    1  UNL1        0.0061
     26 C          59.8603   93.3013    2.0698 C.ar    1  UNL1        0.0198
     27 C          61.3354   93.1423    1.8494 C.ar    1  UNL1        0.0892
     28 N          62.2617   93.7044    0.8120 N.ar    1  UNL1       -0.2245
     29 C          63.6426   93.1933    1.0978 C.ar    1  UNL1        0.1567
     30 N          64.8793   93.5053    0.3082 N.pl3   1  UNL1       -0.3375
     31 S          63.5698   92.3152    2.3118 S.2     1  UNL1       -0.0520
     32 C          62.1439   92.2837    2.7763 C.ar    1  UNL1        0.0498
     33 C          61.4772   91.5842    3.9235 C.ar    1  UNL1        0.0126
     34 H          64.8256   94.0957   -0.4778 H       1  UNL1        0.1442
     35 H          65.7446   93.1197    0.5760 H       1  UNL1        0.1442
@<TRIPOS>BOND
     1    17    18    1
     2    18    15    1
     3    15    16    2
     4    15     7    1
     5     7     8    1
     6     8     9    1
     7     9    10    1
     8    10    11   am
     9    11    12    2
    10    11     1    1
    11     1     2   ar
    12     2     3   ar
    13     3     4   ar
    14     4    19    1
    15    19    20    1
    16    20    21   am
    17    21    22    2
    18    21    24    1
    19    24    25   ar
    20    25    26   ar
    21    26    27   ar
    22    27    28   ar
    23    28    29   ar
    24    29    30    1
    25    29    31   ar
    26    31    32   ar
    27    32    33   ar
    28     4     5   ar
    29     5     6   ar
    30    10    13    1
    31    13    14    1
    32    14     7    1
    33     6     1   ar
    34    33    24   ar
    35    32    27   ar
    36    20    23    1
    37    30    34    1
    38    30    35    1
@<TRIPOS>MOLECULE
*****
 35 38 0 0 0
SMALL
GASTEIGER

@<TRIPOS>ATOM
      1 C          60.9760   92.6781    2.6641 C.ar    1  UNL1        0.0536
      2 C          61.8362   91.6989    3.4066 C.ar    1  UNL1        0.0042
      3 C          61.2512   90.8791    4.5183 C.ar    1  UNL1       -0.0025
      4 C          59.8062   91.0385    4.8875 C.ar    1  UNL1       -0.0026
      5 C          58.9460   92.0177    4.1450 C.ar    1  UNL1       -0.0025
      6 C          59.5309   92.8375    3.0333 C.ar    1  UNL1        0.0042
      7 C          59.6238   93.4890   -2.5093 C.3     1  UNL1        0.1025
      8 C          59.0390   92.6692   -1.3976 C.3     1  UNL1        0.0327
      9 C          59.6846   92.6722   -0.0437 C.3     1  UNL1        0.0943
     10 N          60.9152   93.4949    0.1985 N.am    1  UNL1       -0.2761
     11 C          61.5609   93.4979    1.5525 C.2     1  UNL1        0.2490
     12 O          62.7914   94.3207    1.7947 O.2     1  UNL1       -0.2699
     13 C          61.5001   94.3147   -0.9131 C.3     1  UNL1        0.0943
     14 C          60.8544   94.3118   -2.2670 C.3     1  UNL1        0.0327
     15 C          58.9781   93.4860   -3.8632 C.2     1  UNL1        0.3167
     16 O          59.4934   94.3921   -4.9418 O.2     1  UNL1       -0.2501
     17 C          56.4175   93.1145   -4.0971 C.3     1  UNL1        0.2556
     18 O          57.8172   92.5770   -4.1385 O.3     1  UNL1       -0.4444
     19 C          59.2213   90.2187    5.9991 C.3     1  UNL1        0.1166
     20 N          60.0676   89.8427    7.1792 N.am    1  UNL1       -0.2969
     21 C          59.7890   88.5732    7.9279 C.2     1  UNL1        0.2461
     22 O          58.6641   87.6796    7.4966 O.2     1  UNL1       -0.2701
     23 H          60.8060   90.4292    7.4622 H       1  UNL1        0.1501
     24 C          60.6354   88.1972    9.1079 C.ar    1  UNL1        0.0540
     25 C          60.7995   86.7544    9.4838 C.ar    1  UNL1        0.0061
     26 C          61.6458   86.3785   10.6638 C.ar    1  UNL1        0.0198
     27 C          62.3280   87.4453   11.4678 C.ar    1  UNL1        0.0892
     28 N          63.2180   87.3787   12.6735 N.ar    1  UNL1       -0.2245
     29 C          63.6039   88.7805   13.0426 C.ar    1  UNL1        0.1567
     30 N          64.4864   89.1794   14.1882 N.pl3   1  UNL1       -0.3375
     31 S          62.9523   89.7133   12.0652 S.2     1  UNL1       -0.0520
     32 C          62.1638   88.8881   11.0919 C.ar    1  UNL1        0.0498
     33 C          61.3175   89.2640    9.9119 C.ar    1  UNL1        0.0126
     34 H          64.8693   88.4902   14.7778 H       1  UNL1        0.1442
     35 H          64.6826   90.1304   14.3504 H       1  UNL1        0.1442
@<TRIPOS>BOND
     1    17    18    1
     2    18    15    1
     3    15    16    2
     4    15     7    1
     5     7     8    1
     6     8     9    1
     7     9    10    1
     8    10    11   am
     9    11    12    2
    10    11     1    1
    11     1     2   ar
    12     2     3   ar
    13     3     4   ar
    14     4    19    1
    15    19    20    1
    16    20    21   am
    17    21    22    2
    18    21    24    1
    19    24    25   ar
    20    25    26   ar
    21    26    27   ar
    22    27    28   ar
    23    28    29   ar
    24    29    30    1
    25    29    31   ar
    26    31    32   ar
    27    32    33   ar
    28     4     5   ar
    29     5     6   ar
    30    10    13    1
    31    13    14    1
    32    14     7    1
    33     6     1   ar
    34    33    24   ar
    35    32    27   ar
    36    20    23    1
    37    30    34    1
    38    30    35    1
@<TRIPOS>MOLECULE
*****
 35 38 0 0 0
SMALL
GASTEIGER

@<TRIPOS>ATOM
      1 C          61.8168   88.1651   10.8139 C.ar    1  UNL1        0.0536
      2 C          61.8871   87.3295    9.5702 C.ar    1  UNL1        0.0042
      3 C          61.0965   87.7219    8.3573 C.ar    1  UNL1       -0.0025
      4 C          60.2357   88.9499    8.3882 C.ar    1  UNL1       -0.0026
      5 C          60.1654   89.7855    9.6319 C.ar    1  UNL1       -0.0025
      6 C          60.9560   89.3932   10.8447 C.ar    1  UNL1        0.0042
      7 C          64.8988   90.8904   14.3245 C.3     1  UNL1        0.1025
      8 C          64.1082   91.2828   13.1117 C.3     1  UNL1        0.0327
      9 C          63.3444   90.2436   12.3458 C.3     1  UNL1        0.0943
     10 N          63.3712   88.8120   12.7927 N.am    1  UNL1       -0.2761
     11 C          62.6074   87.7727   12.0268 C.2     1  UNL1        0.2490
     12 O          62.6341   86.3412   12.4737 O.2     1  UNL1       -0.2699
     13 C          64.1617   88.4196   14.0056 C.3     1  UNL1        0.0943
     14 C          64.9255   89.4588   14.7715 C.3     1  UNL1        0.0327
     15 C          65.6625   91.9296   15.0905 C.2     1  UNL1        0.3167
     16 O          65.0676   92.5396   16.3250 O.2     1  UNL1       -0.2501
     17 C          67.5822   91.8093   13.3439 C.3     1  UNL1        0.2556
     18 O          67.0212   92.3589   14.6219 O.3     1  UNL1       -0.4444
     19 C          59.4452   89.3422    7.1753 C.3     1  UNL1        0.1166
     20 N          60.1252   90.0237    6.0249 N.am    1  UNL1       -0.2969
     21 C          59.3840   91.0445    5.2135 C.2     1  UNL1        0.2461
     22 O          57.9628   91.3839    5.5523 O.2     1  UNL1       -0.2701
     23 H          61.0581   89.8009    5.8025 H       1  UNL1        0.1501
     24 C          60.0640   91.7259    4.0631 C.ar    1  UNL1        0.0540
     25 C          61.5498   91.6087    3.8940 C.ar    1  UNL1        0.0061
     26 C          62.2298   92.2902    2.7437 C.ar    1  UNL1        0.0198
     27 C          61.4239   93.0887    1.7624 C.ar    1  UNL1        0.0892
     28 N          61.8140   93.8652    0.5397 N.ar    1  UNL1       -0.2245
     29 C          60.5693   94.4622   -0.0469 C.ar    1  UNL1        0.1567
     30 N          60.4966   95.3166   -1.2777 N.pl3   1  UNL1       -0.3375
     31 S          59.4099   94.0547    0.8132 S.2     1  UNL1       -0.0520
     32 C          59.9381   93.2058    1.9315 C.ar    1  UNL1        0.0498
     33 C          59.2582   92.5244    3.0818 C.ar    1  UNL1        0.0126
     34 H          61.3173   95.5305   -1.7776 H       1  UNL1        0.1442
     35 H          59.6282   95.6636   -1.5854 H       1  UNL1        0.1442
@<TRIPOS>BOND
     1    17    18    1
     2    18    15    1
     3    15    16    2
     4    15     7    1
     5     7     8    1
     6     8     9    1
     7     9    10    1
     8    10    11   am
     9    11    12    2
    10    11     1    1
    11     1     2   ar
    12     2     3   ar
    13     3     4   ar
    14     4    19    1
    15    19    20    1
    16    20    21   am
    17    21    22    2
    18    21    24    1
    19    24    25   ar
    20    25    26   ar
    21    26    27   ar
    22    27    28   ar
    23    28    29   ar
    24    29    30    1
    25    29    31   ar
    26    31    32   ar
    27    32    33   ar
    28     4     5   ar
    29     5     6   ar
    30    10    13    1
    31    13    14    1
    32    14     7    1
    33     6     1   ar
    34    33    24   ar
    35    32    27   ar
    36    20    23    1
    37    30    34    1
    38    30    35    1
@<TRIPOS>MOLECULE
*****
 35 38 0 0 0
SMALL
GASTEIGER

@<TRIPOS>ATOM
      1 C          60.2042   88.1415    9.7359 C.ar    1  UNL1        0.0536
      2 C          60.6121   89.5514    9.4264 C.ar    1  UNL1        0.0042
      3 C          60.2332   90.1708    8.1139 C.ar    1  UNL1       -0.0025
      4 C          59.4463   89.3804    7.1109 C.ar    1  UNL1       -0.0026
      5 C          59.0383   87.9705    7.4204 C.ar    1  UNL1       -0.0025
      6 C          59.4172   87.3511    8.7328 C.ar    1  UNL1        0.0042
      7 C          63.3380   83.9651   11.1457 C.3     1  UNL1        0.1025
      8 C          62.9590   84.5846    9.8332 C.3     1  UNL1        0.0327
      9 C          62.0408   85.7702    9.8008 C.3     1  UNL1        0.0943
     10 N          61.5014   86.3364   11.0808 N.am    1  UNL1       -0.2761
     11 C          60.5831   87.5220   11.0484 C.2     1  UNL1        0.2490
     12 O          60.0437   88.0881   12.3284 O.2     1  UNL1       -0.2699
     13 C          61.8803   85.7169   12.3933 C.3     1  UNL1        0.0943
     14 C          62.7986   84.5313   12.4257 C.3     1  UNL1        0.0327
     15 C          64.2562   82.7795   11.1782 C.2     1  UNL1        0.3167
     16 O          64.8021   82.2184    9.8987 O.2     1  UNL1       -0.2501
     17 C          63.7156   81.1510   13.1290 C.3     1  UNL1        0.2556
     18 O          64.6287   82.1551   12.4901 O.3     1  UNL1       -0.4444
     19 C          59.0674   89.9999    5.7984 C.3     1  UNL1        0.1166
     20 N          60.1251   90.5952    4.9169 N.am    1  UNL1       -0.2969
     21 C          59.8487   91.8638    4.1657 C.2     1  UNL1        0.2461
     22 O          58.5147   92.5372    4.2961 O.2     1  UNL1       -0.2701
     23 H          61.0006   90.1532    4.8313 H       1  UNL1        0.1501
     24 C          60.9064   92.4591    3.2842 C.ar    1  UNL1        0.0540
     25 C          62.2964   91.8955    3.2952 C.ar    1  UNL1        0.0061
     26 C          63.3540   92.4908    2.4136 C.ar    1  UNL1        0.0198
     27 C          63.0215   93.6497    1.5211 C.ar    1  UNL1        0.0892
     28 N          63.8493   94.4387    0.5504 N.ar    1  UNL1       -0.2245
     29 C          62.9708   95.4899   -0.0605 C.ar    1  UNL1        0.1567
     30 N          63.3894   96.5027   -1.0848 N.pl3   1  UNL1       -0.3375
     31 S          61.6001   95.3505    0.5327 S.2     1  UNL1       -0.0520
     32 C          61.6315   94.2132    1.5102 C.ar    1  UNL1        0.0498
     33 C          60.5739   93.6179    2.3917 C.ar    1  UNL1        0.0126
     34 H          64.3169   96.5148   -1.4147 H       1  UNL1        0.1442
     35 H          62.7367   97.1554   -1.4271 H       1  UNL1        0.1442
@<TRIPOS>BOND
     1    17    18    1
     2    18    15    1
     3    15    16    2
     4    15     7    1
     5     7     8    1
     6     8     9    1
     7     9    10    1
     8    10    11   am
     9    11    12    2
    10    11     1    1
    11     1     2   ar
    12     2     3   ar
    13     3     4   ar
    14     4    19    1
    15    19    20    1
    16    20    21   am
    17    21    22    2
    18    21    24    1
    19    24    25   ar
    20    25    26   ar
    21    26    27   ar
    22    27    28   ar
    23    28    29   ar
    24    29    30    1
    25    29    31   ar
    26    31    32   ar
    27    32    33   ar
    28     4     5   ar
    29     5     6   ar
    30    10    13    1
    31    13    14    1
    32    14     7    1
    33     6     1   ar
    34    33    24   ar
    35    32    27   ar
    36    20    23    1
    37    30    34    1
    38    30    35    1
@<TRIPOS>MOLECULE
*****
 35 38 0 0 0
SMALL
GASTEIGER

@<TRIPOS>ATOM
      1 C          59.4062   89.6973    6.4619 C.ar    1  UNL1        0.0536
      2 C          60.6983   90.0831    5.8048 C.ar    1  UNL1        0.0042
      3 C          60.7198   91.1740    4.7754 C.ar    1  UNL1       -0.0025
      4 C          59.4493   91.8790    4.4031 C.ar    1  UNL1       -0.0026
      5 C          58.1572   91.4933    5.0602 C.ar    1  UNL1       -0.0025
      6 C          58.1357   90.4025    6.0896 C.ar    1  UNL1        0.0042
      7 C          61.9565   88.9327   11.1695 C.3     1  UNL1        0.1025
      8 C          61.9781   90.0235   10.1401 C.3     1  UNL1        0.0327
      9 C          61.1208   89.9148    8.9140 C.3     1  UNL1        0.0943
     10 N          60.2420   88.7153    8.7173 N.am    1  UNL1       -0.2761
     11 C          59.3847   88.6065    7.4912 C.2     1  UNL1        0.2490
     12 O          58.5059   87.4070    7.2945 O.2     1  UNL1       -0.2699
     13 C          60.2204   87.6244    9.7467 C.3     1  UNL1        0.0943
     14 C          61.0777   87.7332   10.9727 C.3     1  UNL1        0.0327
     15 C          62.8138   89.0414   12.3955 C.2     1  UNL1        0.3167
     16 O          63.5351   87.8336   12.9159 O.2     1  UNL1       -0.2501
     17 C          64.1851   91.1872   12.9103 C.3     1  UNL1        0.2556
     18 O          62.9498   90.3580   13.1013 O.3     1  UNL1       -0.4444
     19 C          59.4708   92.9698    3.3738 C.3     1  UNL1        0.1166
     20 N          59.0647   92.6752    1.9601 N.am    1  UNL1       -0.2969
     21 C          59.4216   93.6328    0.8622 C.2     1  UNL1        0.2461
     22 O          60.1846   94.8851    1.1778 O.2     1  UNL1       -0.2701
     23 H          58.5639   91.8533    1.7529 H       1  UNL1        0.1501
     24 C          59.0154   93.3382   -0.5515 C.ar    1  UNL1        0.0540
     25 C          59.8850   93.7831   -1.6899 C.ar    1  UNL1        0.0061
     26 C          59.4788   93.4884   -3.1034 C.ar    1  UNL1        0.0198
     27 C          58.2031   92.7490   -3.3786 C.ar    1  UNL1        0.0892
     28 N          57.5483   92.3186   -4.6578 N.ar    1  UNL1       -0.2245
     29 C          56.2741   91.6078   -4.3099 C.ar    1  UNL1        0.1567
     30 N          55.3030   91.0108   -5.2849 N.pl3   1  UNL1       -0.3375
     31 S          56.1413   91.5989   -2.8158 S.2     1  UNL1       -0.0520
     32 C          57.3335   92.3041   -2.2402 C.ar    1  UNL1        0.0498
     33 C          57.7397   92.5988   -0.8267 C.ar    1  UNL1        0.0126
     34 H          55.4786   91.0677   -6.2519 H       1  UNL1        0.1442
     35 H          54.4901   90.5620   -4.9578 H       1  UNL1        0.1442
@<TRIPOS>BOND
     1    17    18    1
     2    18    15    1
     3    15    16    2
     4    15     7    1
     5     7     8    1
     6     8     9    1
     7     9    10    1
     8    10    11   am
     9    11    12    2
    10    11     1    1
    11     1     2   ar
    12     2     3   ar
    13     3     4   ar
    14     4    19    1
    15    19    20    1
    16    20    21   am
    17    21    22    2
    18    21    24    1
    19    24    25   ar
    20    25    26   ar
    21    26    27   ar
    22    27    28   ar
    23    28    29   ar
    24    29    30    1
    25    29    31   ar
    26    31    32   ar
    27    32    33   ar
    28     4     5   ar
    29     5     6   ar
    30    10    13    1
    31    13    14    1
    32    14     7    1
    33     6     1   ar
    34    33    24   ar
    35    32    27   ar
    36    20    23    1
    37    30    34    1
    38    30    35    1
@<TRIPOS>MOLECULE
*****
 35 38 0 0 0
SMALL
GASTEIGER

@<TRIPOS>ATOM
      1 C          61.1545   92.4285    3.0453 C.ar    1  UNL1        0.0536
      2 C          61.8765   91.3228    3.7568 C.ar    1  UNL1        0.0042
      3 C          61.1959   90.5732    4.8636 C.ar    1  UNL1       -0.0025
      4 C          59.7934   90.9293    5.2589 C.ar    1  UNL1       -0.0026
      5 C          59.0715   92.0350    4.5473 C.ar    1  UNL1       -0.0025
      6 C          59.7519   92.7846    3.4406 C.ar    1  UNL1        0.0042
      7 C          59.9274   93.4037   -2.1310 C.3     1  UNL1        0.1025
      8 C          59.2469   92.6541   -1.0242 C.3     1  UNL1        0.0327
      9 C          59.8828   92.5789    0.3323 C.3     1  UNL1        0.0943
     10 N          61.1991   93.2533    0.5820 N.am    1  UNL1       -0.2761
     11 C          61.8350   93.1781    1.9385 C.2     1  UNL1        0.2490
     12 O          63.1513   93.8525    2.1882 O.2     1  UNL1       -0.2699
     13 C          61.8796   94.0029   -0.5248 C.3     1  UNL1        0.0943
     14 C          61.2438   94.0781   -1.8812 C.3     1  UNL1        0.0327
     15 C          59.2916   93.4789   -3.4874 C.2     1  UNL1        0.3167
     16 O          59.7792   94.4827   -4.4897 O.2     1  UNL1       -0.2501
     17 C          57.1323   92.9731   -4.8408 C.3     1  UNL1        0.2556
     18 O          58.1681   92.5503   -3.8417 O.3     1  UNL1       -0.4444
     19 C          59.1129   90.1797    6.3656 C.3     1  UNL1        0.1166
     20 N          59.9303   89.4836    7.4132 N.am    1  UNL1       -0.2969
     21 C          59.5389   88.1137    7.8824 C.2     1  UNL1        0.2461
     22 O          58.3300   87.4399    7.3040 O.2     1  UNL1       -0.2701
     23 H          60.7238   89.9259    7.7929 H       1  UNL1        0.1501
     24 C          60.3563   87.4176    8.9300 C.ar    1  UNL1        0.0540
     25 C          60.2303   87.8200   10.3695 C.ar    1  UNL1        0.0061
     26 C          61.0477   87.1239   11.4170 C.ar    1  UNL1        0.0198
     27 C          61.9910   86.0255   11.0250 C.ar    1  UNL1        0.0892
     28 N          62.9189   85.1645   11.8299 N.ar    1  UNL1       -0.2245
     29 C          63.6182   84.2300   10.8878 C.ar    1  UNL1        0.1567
     30 N          64.6348   83.1939   11.2663 N.pl3   1  UNL1       -0.3375
     31 S          63.1226   84.5135    9.5007 S.2     1  UNL1       -0.0520
     32 C          62.1169   85.6232    9.5855 C.ar    1  UNL1        0.0498
     33 C          61.2996   86.3192    8.5380 C.ar    1  UNL1        0.0126
     34 H          64.8968   83.0826   12.2087 H       1  UNL1        0.1442
     35 H          65.0400   82.6252   10.5722 H       1  UNL1        0.1442
@<TRIPOS>BOND
     1    17    18    1
     2    18    15    1
     3    15    16    2
     4    15     7    1
     5     7     8    1
     6     8     9    1
     7     9    10    1
     8    10    11   am
     9    11    12    2
    10    11     1    1
    11     1     2   ar
    12     2     3   ar
    13     3     4   ar
    14     4    19    1
    15    19    20    1
    16    20    21   am
    17    21    22    2
    18    21    24    1
    19    24    25   ar
    20    25    26   ar
    21    26    27   ar
    22    27    28   ar
    23    28    29   ar
    24    29    30    1
    25    29    31   ar
    26    31    32   ar
    27    32    33   ar
    28     4     5   ar
    29     5     6   ar
    30    10    13    1
    31    13    14    1
    32    14     7    1
    33     6     1   ar
    34    33    24   ar
    35    32    27   ar
    36    20    23    1
    37    30    34    1
    38    30    35    1
@<TRIPOS>MOLECULE
*****
 35 38 0 0 0
SMALL
GASTEIGER

@<TRIPOS>ATOM
      1 C          59.3544   89.4844    6.6171 C.ar    1  UNL1        0.0536
      2 C          58.0491   90.1477    6.2911 C.ar    1  UNL1        0.0042
      3 C          57.9955   91.2267    5.2503 C.ar    1  UNL1       -0.0025
      4 C          59.2471   91.6423    4.5357 C.ar    1  UNL1       -0.0026
      5 C          60.5524   90.9789    4.8617 C.ar    1  UNL1       -0.0025
      6 C          60.6060   89.9000    5.9024 C.ar    1  UNL1        0.0042
      7 C          62.1889   88.8063   11.1730 C.3     1  UNL1        0.1025
      8 C          62.1352   89.8852   10.1323 C.3     1  UNL1        0.0327
      9 C          61.2083   89.7516    8.9606 C.3     1  UNL1        0.0943
     10 N          60.3350   88.5391    8.8295 N.am    1  UNL1       -0.2761
     11 C          59.4081   88.4055    7.6578 C.2     1  UNL1        0.2490
     12 O          58.5348   87.1930    7.5267 O.2     1  UNL1       -0.2699
     13 C          60.3887   87.4602    9.8702 C.3     1  UNL1        0.0943
     14 C          61.3156   87.5938   11.0419 C.3     1  UNL1        0.0327
     15 C          63.1158   88.9399   12.3447 C.2     1  UNL1        0.3167
     16 O          63.5061   87.7259   13.1345 O.2     1  UNL1       -0.2501
     17 C          64.5738   90.4221   13.9026 C.3     1  UNL1        0.2556
     18 O          63.6525   90.2875   12.7266 O.3     1  UNL1       -0.4444
     19 C          59.1934   92.7212    3.4950 C.3     1  UNL1        0.1166
     20 N          60.4628   93.3449    2.9951 N.am    1  UNL1       -0.2969
     21 C          60.8648   93.1798    1.5595 C.2     1  UNL1        0.2461
     22 O          59.9975   92.3911    0.6237 O.2     1  UNL1       -0.2701
     23 H          61.0320   93.8625    3.6093 H       1  UNL1        0.1501
     24 C          62.1341   93.8035    1.0596 C.ar    1  UNL1        0.0540
     25 C          63.3561   93.8174    1.9293 C.ar    1  UNL1        0.0061
     26 C          64.6254   94.4410    1.4293 C.ar    1  UNL1        0.0198
     27 C          64.6726   95.0509    0.0597 C.ar    1  UNL1        0.0892
     28 N          65.7732   95.7325   -0.6981 N.ar    1  UNL1       -0.2245
     29 C          65.2313   96.1399   -2.0361 C.ar    1  UNL1        0.1567
     30 N          65.9914   96.8521   -3.1155 N.pl3   1  UNL1       -0.3375
     31 S          63.7959   95.7101   -2.1053 S.2     1  UNL1       -0.0520
     32 C          63.4506   95.0370   -0.8100 C.ar    1  UNL1        0.0498
     33 C          62.1814   94.4134   -0.3101 C.ar    1  UNL1        0.0126
     34 H          66.9355   97.0937   -2.9754 H       1  UNL1        0.1442
     35 H          65.5462   97.0779   -3.9641 H       1  UNL1        0.1442
@<TRIPOS>BOND
     1    17    18    1
     2    18    15    1
     3    15    16    2
     4    15     7    1
     5     7     8    1
     6     8     9    1
     7     9    10    1
     8    10    11   am
     9    11    12    2
    10    11     1    1
    11     1     2   ar
    12     2     3   ar
    13     3     4   ar
    14     4    19    1
    15    19    20    1
    16    20    21   am
    17    21    22    2
    18    21    24    1
    19    24    25   ar
    20    25    26   ar
    21    26    27   ar
    22    27    28   ar
    23    28    29   ar
    24    29    30    1
    25    29    31   ar
    26    31    32   ar
    27    32    33   ar
    28     4     5   ar
    29     5     6   ar
    30    10    13    1
    31    13    14    1
    32    14     7    1
    33     6     1   ar
    34    33    24   ar
    35    32    27   ar
    36    20    23    1
    37    30    34    1
    38    30    35    1
@<TRIPOS>MOLECULE
*****
 35 38 0 0 0
SMALL
GASTEIGER

@<TRIPOS>ATOM
      1 C          59.2808   89.7624    6.7384 C.ar    1  UNL1        0.0536
      2 C          60.0679   90.4210    7.8324 C.ar    1  UNL1        0.0042
      3 C          60.6810   89.5896    8.9201 C.ar    1  UNL1       -0.0025
      4 C          60.5069   88.0998    8.9138 C.ar    1  UNL1       -0.0026
      5 C          59.7198   87.4413    7.8198 C.ar    1  UNL1       -0.0025
      6 C          59.1067   88.2725    6.7322 C.ar    1  UNL1        0.0042
      7 C          61.2985   92.6239    2.6164 C.3     1  UNL1        0.1025
      8 C          61.9116   91.7926    3.7041 C.3     1  UNL1        0.0327
      9 C          61.0347   91.1159    4.7155 C.3     1  UNL1        0.0943
     10 N          59.5446   91.2704    4.6393 N.am    1  UNL1       -0.2761
     11 C          58.6677   90.5937    5.6508 C.2     1  UNL1        0.2490
     12 O          57.1776   90.7483    5.5746 O.2     1  UNL1       -0.2699
     13 C          58.9315   92.1017    3.5517 C.3     1  UNL1        0.0943
     14 C          59.8085   92.7785    2.5402 C.3     1  UNL1        0.0327
     15 C          62.1755   93.3006    1.6050 C.2     1  UNL1        0.3167
     16 O          61.6992   93.4693    0.1927 O.2     1  UNL1       -0.2501
     17 C          64.6828   93.7002    1.0538 C.3     1  UNL1        0.2556
     18 O          63.5287   93.8086    2.0059 O.3     1  UNL1       -0.4444
     19 C          61.1200   87.2685   10.0014 C.3     1  UNL1        0.1166
     20 N          62.2475   87.8208   10.8223 N.am    1  UNL1       -0.2969
     21 C          61.9751   88.8639   11.8652 C.2     1  UNL1        0.2461
     22 O          60.5752   89.3549   12.0871 O.2     1  UNL1       -0.2701
     23 H          63.1663   87.4985   10.6767 H       1  UNL1        0.1501
     24 C          63.1026   89.4162   12.6861 C.ar    1  UNL1        0.0540
     25 C          63.6137   88.6501   13.8700 C.ar    1  UNL1        0.0061
     26 C          64.7411   89.2023   14.6909 C.ar    1  UNL1        0.0198
     27 C          65.3575   90.5208   14.3278 C.ar    1  UNL1        0.0892
     28 N          66.4730   91.3112   14.9450 N.ar    1  UNL1       -0.2245
     29 C          66.6513   92.5658   14.1425 C.ar    1  UNL1        0.1567
     30 N          67.6582   93.6459   14.4068 N.pl3   1  UNL1       -0.3375
     31 S          65.6460   92.5508   13.0293 S.2     1  UNL1       -0.0520
     32 C          64.8464   91.2869   13.1438 C.ar    1  UNL1        0.0498
     33 C          63.7190   90.7346   12.3230 C.ar    1  UNL1        0.0126
     34 H          68.2791   93.5649   15.1665 H       1  UNL1        0.1442
     35 H          67.6980   94.4358   13.8205 H       1  UNL1        0.1442
@<TRIPOS>BOND
     1    17    18    1
     2    18    15    1
     3    15    16    2
     4    15     7    1
     5     7     8    1
     6     8     9    1
     7     9    10    1
     8    10    11   am
     9    11    12    2
    10    11     1    1
    11     1     2   ar
    12     2     3   ar
    13     3     4   ar
    14     4    19    1
    15    19    20    1
    16    20    21   am
    17    21    22    2
    18    21    24    1
    19    24    25   ar
    20    25    26   ar
    21    26    27   ar
    22    27    28   ar
    23    28    29   ar
    24    29    30    1
    25    29    31   ar
    26    31    32   ar
    27    32    33   ar
    28     4     5   ar
    29     5     6   ar
    30    10    13    1
    31    13    14    1
    32    14     7    1
    33     6     1   ar
    34    33    24   ar
    35    32    27   ar
    36    20    23    1
    37    30    34    1
    38    30    35    1
