@<TRIPOS>MOLECULE
*****
 41 44 0 0 0
SMALL
GASTEIGER

@<TRIPOS>ATOM
      1 C          61.5736   84.9672    9.9915 C.3     1  UNL1        0.0311
      2 C          62.3451   85.4340   11.1902 C.ar    1  UNL1       -0.0203
      3 C          62.3779   86.8924   11.5397 C.ar    1  UNL1        0.0145
      4 C          63.1494   87.3592   12.7384 C.ar    1  UNL1        0.0794
      5 C          63.8880   86.3677   13.5877 C.ar    1  UNL1        0.0382
      6 C          64.5579   87.1183   14.7002 C.ar    1  UNL1        0.1216
      7 N          64.2333   88.5738   14.5385 N.ar    1  UNL1       -0.1675
      8 N          63.3628   88.7227   13.3260 N.ar    1  UNL1       -0.2487
      9 C          63.8551   84.9093   13.2383 C.ar    1  UNL1        0.0028
     10 C          63.0837   84.4425   12.0395 C.ar    1  UNL1       -0.0030
     11 C          63.0508   82.9841   11.6901 C.ar    1  UNL1        0.0103
     12 C          63.5561   82.5210   10.3558 C.ar    1  UNL1        0.0008
     13 C          63.5233   81.0626   10.0064 C.ar    1  UNL1        0.0039
     14 C          62.9851   80.0674   10.9912 C.ar    1  UNL1        0.0723
     15 C          62.4798   80.5305   12.3254 C.ar    1  UNL1        0.0152
     16 C          62.5126   81.9888   12.6749 C.ar    1  UNL1        0.0576
     17 CL         62.0073   82.4520   14.0091 Cl      1  UNL1       -0.0823
     18 C          62.9522   78.6090   10.6418 C.3     1  UNL1        0.4186
     19 F          62.9194   77.1507   10.2924 F       1  UNL1       -0.1659
     20 F          63.2405   78.9458    9.2089 F       1  UNL1       -0.1659
     21 F          62.6640   78.2722   12.0748 F       1  UNL1       -0.1659
     22 C          62.8039   90.0092   12.7945 C.3     1  UNL1        0.1273
     23 C          63.7264   91.0609   12.2534 C.ar    1  UNL1       -0.0001
     24 C          63.6325   91.4724   10.8140 C.ar    1  UNL1       -0.0023
     25 C          64.5550   92.5240   10.2728 C.ar    1  UNL1        0.0042
     26 C          65.5716   93.1642   11.1711 C.ar    1  UNL1        0.0533
     27 C          65.6656   92.7527   12.6104 C.ar    1  UNL1        0.0042
     28 C          64.7430   91.7011   13.1516 C.ar    1  UNL1       -0.0023
     29 C          66.4942   94.2159   10.6299 C.2     1  UNL1        0.2459
     30 O          66.9911   95.3110   11.5264 O.2     1  UNL1       -0.2701
     31 N          66.9199   94.1724    9.1922 N.am    1  UNL1       -0.3005
     32 H          66.5937   93.4537    8.6038 H       1  UNL1        0.1498
     33 C          67.8424   95.2241    8.6511 C.3     1  UNL1        0.0956
     34 C          67.2845   96.5161    8.1319 C.3     1  UNL1        0.0629
     35 C          65.7998   96.7087    8.0398 C.2     1  UNL1        0.0520
     36 O          65.1403   96.8227    6.6974 O.co2   1  UNL1       -0.5491
     37 O          64.9747   96.7874    9.2899 O.co2   1  UNL1       -0.5491
     38 C          61.3224   90.2441   12.8042 C.3     1  UNL1        0.0289
     39 C          60.4683   89.6912   11.7021 C.3     1  UNL1        0.0023
     40 C          60.8265   89.9576   10.2700 C.3     1  UNL1        0.0001
     41 C          59.2558   88.8718   12.0319 C.3     1  UNL1        0.0001
@<TRIPOS>UNITY_ATOM_ATTR
36 1
charge -1
@<TRIPOS>BOND
     1     1     2    1
     2     2     3   ar
     3     3     4   ar
     4     4     5   ar
     5     5     6   ar
     6     6     7   ar
     7     7     8   ar
     8     8    22    1
     9    22    38    1
    10    38    39    1
    11    39    40    1
    12    39    41    1
    13    22    23    1
    14    23    24   ar
    15    24    25   ar
    16    25    26   ar
    17    26    29    1
    18    29    30    2
    19    29    31   am
    20    31    33    1
    21    33    34    1
    22    34    35    1
    23    35    36   ar
    24    35    37   ar
    25    26    27   ar
    26    27    28   ar
    27     5     9   ar
    28     9    10   ar
    29    10    11    1
    30    11    12   ar
    31    12    13   ar
    32    13    14   ar
    33    14    18    1
    34    18    19    1
    35    18    20    1
    36    18    21    1
    37    14    15   ar
    38    15    16   ar
    39    16    17    1
    40    10     2   ar
    41    16    11   ar
    42     8     4   ar
    43    28    23   ar
    44    31    32    1
@<TRIPOS>MOLECULE
*****
 41 44 0 0 0
SMALL
GASTEIGER

@<TRIPOS>ATOM
      1 C          64.6479   84.4946   13.5965 C.3     1  UNL1        0.0311
      2 C          63.6715   85.3477   12.8421 C.ar    1  UNL1       -0.0203
      3 C          63.6447   86.8311   13.0631 C.ar    1  UNL1        0.0145
      4 C          62.6684   87.6842   12.3088 C.ar    1  UNL1        0.0794
      5 C          61.7189   87.0539   11.3334 C.ar    1  UNL1        0.0382
      6 C          60.8746   88.1421   10.7392 C.ar    1  UNL1        0.1216
      7 N          61.3023   89.4449   11.3472 N.ar    1  UNL1       -0.1675
      8 N          62.4109   89.1619   12.3173 N.ar    1  UNL1       -0.2487
      9 C          61.7457   85.5705   11.1124 C.ar    1  UNL1        0.0028
     10 C          62.7221   84.7175   11.8668 C.ar    1  UNL1       -0.0030
     11 C          62.7489   83.2340   11.6458 C.ar    1  UNL1        0.0103
     12 C          62.0807   82.3173   12.6272 C.ar    1  UNL1        0.0008
     13 C          62.1075   80.8339   12.4063 C.ar    1  UNL1        0.0039
     14 C          62.8026   80.2672   11.2039 C.ar    1  UNL1        0.0723
     15 C          63.4709   81.1839   10.2225 C.ar    1  UNL1        0.0152
     16 C          63.4440   82.6673   10.4435 C.ar    1  UNL1        0.0576
     17 CL         64.1123   83.5841    9.4621 Cl      1  UNL1       -0.0823
     18 C          62.8295   78.7839   10.9828 C.3     1  UNL1        0.4186
     19 F          62.8564   77.3005   10.7619 F       1  UNL1       -0.1659
     20 F          62.7702   78.5619   12.4651 F       1  UNL1       -0.1659
     21 F          62.8888   79.0058    9.5005 F       1  UNL1       -0.1659
     22 C          63.1349   90.1782   13.1497 C.3     1  UNL1        0.1273
     23 C          64.0486   91.1710   12.4943 C.ar    1  UNL1       -0.0001
     24 C          63.8939   91.4834   11.0354 C.ar    1  UNL1       -0.0023
     25 C          64.8076   92.4762   10.3800 C.ar    1  UNL1        0.0042
     26 C          65.8760   93.1567   11.1836 C.ar    1  UNL1        0.0533
     27 C          66.0306   92.8443   12.6424 C.ar    1  UNL1        0.0042
     28 C          65.1170   91.8515   13.2979 C.ar    1  UNL1       -0.0023
     29 C          66.7896   94.1495   10.5282 C.2     1  UNL1        0.2459
     30 O          68.0023   93.6752    9.7837 O.2     1  UNL1       -0.2701
     31 N          66.4906   95.6167   10.6173 N.am    1  UNL1       -0.3005
     32 H          65.6946   95.9280   11.1059 H       1  UNL1        0.1498
     33 C          67.4042   96.6095    9.9619 C.3     1  UNL1        0.0956
     34 C          67.3085   96.8560    8.4854 C.3     1  UNL1        0.0629
     35 C          65.9722   96.8245    7.8048 C.2     1  UNL1        0.0520
     36 O          64.7141   96.8542    8.6209 O.co2   1  UNL1       -0.5491
     37 O          65.8941   96.7634    6.3080 O.co2   1  UNL1       -0.5491
     38 C          62.9452   90.2018   14.6375 C.3     1  UNL1        0.0289
     39 C          63.6367   89.1861   15.4978 C.3     1  UNL1        0.0023
     40 C          63.0709   88.8307   16.8408 C.3     1  UNL1        0.0001
     41 C          64.8941   88.5256   15.0152 C.3     1  UNL1        0.0001
@<TRIPOS>UNITY_ATOM_ATTR
36 1
charge -1
@<TRIPOS>BOND
     1     1     2    1
     2     2     3   ar
     3     3     4   ar
     4     4     5   ar
     5     5     6   ar
     6     6     7   ar
     7     7     8   ar
     8     8    22    1
     9    22    38    1
    10    38    39    1
    11    39    40    1
    12    39    41    1
    13    22    23    1
    14    23    24   ar
    15    24    25   ar
    16    25    26   ar
    17    26    29    1
    18    29    30    2
    19    29    31   am
    20    31    33    1
    21    33    34    1
    22    34    35    1
    23    35    36   ar
    24    35    37   ar
    25    26    27   ar
    26    27    28   ar
    27     5     9   ar
    28     9    10   ar
    29    10    11    1
    30    11    12   ar
    31    12    13   ar
    32    13    14   ar
    33    14    18    1
    34    18    19    1
    35    18    20    1
    36    18    21    1
    37    14    15   ar
    38    15    16   ar
    39    16    17    1
    40    10     2   ar
    41    16    11   ar
    42     8     4   ar
    43    28    23   ar
    44    31    32    1
@<TRIPOS>MOLECULE
*****
 41 44 0 0 0
SMALL
GASTEIGER

@<TRIPOS>ATOM
      1 C          64.7570   89.1474   14.5516 C.3     1  UNL1        0.0311
      2 C          64.3753   89.8571   13.2864 C.ar    1  UNL1       -0.0203
      3 C          63.3347   89.2680   12.3808 C.ar    1  UNL1        0.0145
      4 C          62.9530   89.9775   11.1156 C.ar    1  UNL1        0.0794
      5 C          63.6118   91.2762   10.7560 C.ar    1  UNL1        0.0382
      6 C          63.0345   91.7438    9.4529 C.ar    1  UNL1        0.1216
      7 N          62.0188   90.7340    9.0071 N.ar    1  UNL1       -0.1675
      8 N          61.9684   89.6424   10.0347 N.ar    1  UNL1       -0.2487
      9 C          64.6524   91.8653   11.6616 C.ar    1  UNL1        0.0028
     10 C          65.0341   91.1557   12.9268 C.ar    1  UNL1       -0.0030
     11 C          66.0748   91.7448   13.8325 C.ar    1  UNL1        0.0103
     12 C          65.7135   92.1375   15.2343 C.ar    1  UNL1        0.0008
     13 C          66.7541   92.7266   16.1400 C.ar    1  UNL1        0.0039
     14 C          68.1560   92.9230   15.6437 C.ar    1  UNL1        0.0723
     15 C          68.5172   92.5302   14.2418 C.ar    1  UNL1        0.0152
     16 C          67.4766   91.9411   13.3362 C.ar    1  UNL1        0.0576
     17 CL         67.8378   91.5484   11.9343 Cl      1  UNL1       -0.0823
     18 C          69.1966   93.5120   16.5492 C.3     1  UNL1        0.4186
     19 F          70.2372   94.1012   17.4547 F       1  UNL1       -0.1659
     20 F          68.7693   94.8913   16.1430 F       1  UNL1       -0.1659
     21 F          69.6239   92.1328   16.9555 F       1  UNL1       -0.1659
     22 C          61.0880   88.4288    9.9894 C.3     1  UNL1        0.1273
     23 C          61.6175   87.1008   10.4432 C.ar    1  UNL1       -0.0001
     24 C          61.4493   86.6747   11.8716 C.ar    1  UNL1       -0.0023
     25 C          61.9788   85.3467   12.3254 C.ar    1  UNL1        0.0042
     26 C          62.6766   84.4447   11.3508 C.ar    1  UNL1        0.0533
     27 C          62.8447   84.8707    9.9225 C.ar    1  UNL1        0.0042
     28 C          62.3152   86.1988    9.4686 C.ar    1  UNL1       -0.0023
     29 C          63.2061   83.1167   11.8046 C.2     1  UNL1        0.2459
     30 O          64.5054   83.0424   12.5503 O.2     1  UNL1       -0.2701
     31 N          62.4362   81.8628   11.5127 N.am    1  UNL1       -0.3005
     32 H          61.5833   81.9115   11.0233 H       1  UNL1        0.1498
     33 C          62.9657   80.5348   11.9666 C.3     1  UNL1        0.0956
     34 C          62.4836   79.9355   13.2544 C.3     1  UNL1        0.0629
     35 C          61.6444   80.7507   14.1931 C.2     1  UNL1        0.0520
     36 O          62.2459   81.9210   14.9131 O.co2   1  UNL1       -0.5491
     37 O          60.2035   80.3955   14.4118 O.co2   1  UNL1       -0.5491
     38 C          59.6781   88.5432    9.4903 C.3     1  UNL1        0.0289
     39 C          59.3481   88.1548    8.0796 C.3     1  UNL1        0.0023
     40 C          58.9902   86.7343    7.7569 C.3     1  UNL1        0.0001
     41 C          59.3761   89.1868    6.9913 C.3     1  UNL1        0.0001
@<TRIPOS>UNITY_ATOM_ATTR
36 1
charge -1
@<TRIPOS>BOND
     1     1     2    1
     2     2     3   ar
     3     3     4   ar
     4     4     5   ar
     5     5     6   ar
     6     6     7   ar
     7     7     8   ar
     8     8    22    1
     9    22    38    1
    10    38    39    1
    11    39    40    1
    12    39    41    1
    13    22    23    1
    14    23    24   ar
    15    24    25   ar
    16    25    26   ar
    17    26    29    1
    18    29    30    2
    19    29    31   am
    20    31    33    1
    21    33    34    1
    22    34    35    1
    23    35    36   ar
    24    35    37   ar
    25    26    27   ar
    26    27    28   ar
    27     5     9   ar
    28     9    10   ar
    29    10    11    1
    30    11    12   ar
    31    12    13   ar
    32    13    14   ar
    33    14    18    1
    34    18    19    1
    35    18    20    1
    36    18    21    1
    37    14    15   ar
    38    15    16   ar
    39    16    17    1
    40    10     2   ar
    41    16    11   ar
    42     8     4   ar
    43    28    23   ar
    44    31    32    1
@<TRIPOS>MOLECULE
*****
 41 44 0 0 0
SMALL
GASTEIGER

@<TRIPOS>ATOM
      1 C          61.7692   84.5739    9.9816 C.3     1  UNL1        0.0311
      2 C          62.4829   85.0584   11.2089 C.ar    1  UNL1       -0.0203
      3 C          62.5487   86.5269   11.5075 C.ar    1  UNL1        0.0145
      4 C          63.2623   87.0114   12.7347 C.ar    1  UNL1        0.0794
      5 C          63.9101   86.0275   13.6632 C.ar    1  UNL1        0.0382
      6 C          64.5383   86.7957   14.7880 C.ar    1  UNL1        0.1216
      7 N          64.2787   88.2545   14.5546 N.ar    1  UNL1       -0.1675
      8 N          63.4901   88.3879   13.2856 N.ar    1  UNL1       -0.2487
      9 C          63.8443   84.5590   13.3646 C.ar    1  UNL1        0.0028
     10 C          63.1307   84.0745   12.1373 C.ar    1  UNL1       -0.0030
     11 C          63.0648   82.6059   11.8386 C.ar    1  UNL1        0.0103
     12 C          63.5614   82.0853   10.5224 C.ar    1  UNL1        0.0008
     13 C          63.4955   80.6168   10.2238 C.ar    1  UNL1        0.0039
     14 C          62.9332   79.6690   11.2413 C.ar    1  UNL1        0.0723
     15 C          62.4367   80.1896   12.5575 C.ar    1  UNL1        0.0152
     16 C          62.5025   81.6581   12.8562 C.ar    1  UNL1        0.0576
     17 CL         62.0060   82.1788   14.1724 Cl      1  UNL1       -0.0823
     18 C          62.8673   78.2005   10.9427 C.3     1  UNL1        0.4186
     19 F          62.8015   76.7320   10.6442 F       1  UNL1       -0.1659
     20 F          62.7630   77.9068   12.4099 F       1  UNL1       -0.1659
     21 F          62.9717   78.4941    9.4754 F       1  UNL1       -0.1659
     22 C          63.0131   89.6721   12.6748 C.3     1  UNL1        0.1273
     23 C          62.1260   89.6435   11.4656 C.ar    1  UNL1       -0.0001
     24 C          60.6350   89.6577   11.6288 C.ar    1  UNL1       -0.0023
     25 C          59.7478   89.6291   10.4196 C.ar    1  UNL1        0.0042
     26 C          60.3517   89.5861    9.0471 C.ar    1  UNL1        0.0533
     27 C          61.8427   89.5719    8.8840 C.ar    1  UNL1        0.0042
     28 C          62.7299   89.6005   10.0931 C.ar    1  UNL1       -0.0023
     29 C          59.4646   89.5575    7.8379 C.2     1  UNL1        0.2459
     30 O          58.5196   88.4117    7.6280 O.2     1  UNL1       -0.2701
     31 N          59.5225   90.6746    6.8386 N.am    1  UNL1       -0.3005
     32 H          60.1428   91.4266    6.9763 H       1  UNL1        0.1498
     33 C          58.6354   90.6459    5.6294 C.3     1  UNL1        0.0956
     34 C          58.5840   91.8290    4.7087 C.3     1  UNL1        0.0629
     35 C          59.8435   92.3425    4.0763 C.2     1  UNL1        0.0520
     36 O          59.7910   93.5209    3.1497 O.co2   1  UNL1       -0.5491
     37 O          61.1555   91.6775    4.3704 O.co2   1  UNL1       -0.5491
     38 C          63.4232   90.9851   13.2732 C.3     1  UNL1        0.0289
     39 C          64.7704   91.5645   12.9583 C.3     1  UNL1        0.0023
     40 C          65.0258   92.1829   11.6157 C.3     1  UNL1        0.0001
     41 C          65.8625   91.5257   13.9860 C.3     1  UNL1        0.0001
@<TRIPOS>UNITY_ATOM_ATTR
36 1
charge -1
@<TRIPOS>BOND
     1     1     2    1
     2     2     3   ar
     3     3     4   ar
     4     4     5   ar
     5     5     6   ar
     6     6     7   ar
     7     7     8   ar
     8     8    22    1
     9    22    38    1
    10    38    39    1
    11    39    40    1
    12    39    41    1
    13    22    23    1
    14    23    24   ar
    15    24    25   ar
    16    25    26   ar
    17    26    29    1
    18    29    30    2
    19    29    31   am
    20    31    33    1
    21    33    34    1
    22    34    35    1
    23    35    36   ar
    24    35    37   ar
    25    26    27   ar
    26    27    28   ar
    27     5     9   ar
    28     9    10   ar
    29    10    11    1
    30    11    12   ar
    31    12    13   ar
    32    13    14   ar
    33    14    18    1
    34    18    19    1
    35    18    20    1
    36    18    21    1
    37    14    15   ar
    38    15    16   ar
    39    16    17    1
    40    10     2   ar
    41    16    11   ar
    42     8     4   ar
    43    28    23   ar
    44    31    32    1
@<TRIPOS>MOLECULE
*****
 41 44 0 0 0
SMALL
GASTEIGER

@<TRIPOS>ATOM
      1 C          62.3260   88.5940    9.6897 C.3     1  UNL1        0.0311
      2 C          62.6466   87.5870   10.7543 C.ar    1  UNL1       -0.0203
      3 C          62.9574   88.0432   12.1490 C.ar    1  UNL1        0.0145
      4 C          63.2779   87.0362   13.2135 C.ar    1  UNL1        0.0794
      5 C          63.2877   85.5730   12.8833 C.ar    1  UNL1        0.0382
      6 C          63.6374   84.8184   14.1316 C.ar    1  UNL1        0.1216
      7 N          63.8437   85.8152   15.2333 N.ar    1  UNL1       -0.1675
      8 N          63.6216   87.1859   14.6659 N.ar    1  UNL1       -0.2487
      9 C          62.9769   85.1168   11.4886 C.ar    1  UNL1        0.0028
     10 C          62.6564   86.1239   10.4240 C.ar    1  UNL1       -0.0030
     11 C          62.3455   85.6677    9.0292 C.ar    1  UNL1        0.0103
     12 C          63.3983   84.9768    8.2140 C.ar    1  UNL1        0.0008
     13 C          63.0875   84.5207    6.8193 C.ar    1  UNL1        0.0039
     14 C          61.7240   84.7553    6.2398 C.ar    1  UNL1        0.0723
     15 C          60.6713   85.4461    7.0550 C.ar    1  UNL1        0.0152
     16 C          60.9821   85.9023    8.4497 C.ar    1  UNL1        0.0576
     17 CL         59.9294   86.5932    9.2650 Cl      1  UNL1       -0.0823
     18 C          61.4131   84.2991    4.8451 C.3     1  UNL1        0.4186
     19 F          61.1022   83.8429    3.4504 F       1  UNL1       -0.1659
     20 F          60.3032   83.4397    5.3735 F       1  UNL1       -0.1659
     21 F          62.5231   85.1586    4.3165 F       1  UNL1       -0.1659
     22 C          63.7249   88.4791   15.4188 C.3     1  UNL1        0.1273
     23 C          64.2845   89.6967   14.7447 C.ar    1  UNL1       -0.0001
     24 C          63.4390   90.4759   13.7813 C.ar    1  UNL1       -0.0023
     25 C          63.9986   91.6934   13.1072 C.ar    1  UNL1        0.0042
     26 C          65.4037   92.1318   13.3964 C.ar    1  UNL1        0.0533
     27 C          66.2492   91.3526   14.3597 C.ar    1  UNL1        0.0042
     28 C          65.6896   90.1351   15.0339 C.ar    1  UNL1       -0.0023
     29 C          65.9633   93.3494   12.7223 C.2     1  UNL1        0.2459
     30 O          66.4960   94.4844   13.5457 O.2     1  UNL1       -0.2701
     31 N          65.9902   93.4319   11.2248 N.am    1  UNL1       -0.3005
     32 H          65.6406   92.6869   10.6844 H       1  UNL1        0.1498
     33 C          66.5498   94.6494   10.5507 C.3     1  UNL1        0.0956
     34 C          67.6358   94.5069    9.5259 C.3     1  UNL1        0.0629
     35 C          68.3393   93.1930    9.3563 C.2     1  UNL1        0.0520
     36 O          68.7466   92.3993   10.5622 O.co2   1  UNL1       -0.5491
     37 O          68.6354   92.6728    7.9809 O.co2   1  UNL1       -0.5491
     38 C          63.2687   88.5548   16.8457 C.3     1  UNL1        0.0289
     39 C          62.4705   87.4317   17.4384 C.3     1  UNL1        0.0023
     40 C          62.9364   86.7637   18.6981 C.3     1  UNL1        0.0001
     41 C          61.2063   86.9765   16.7716 C.3     1  UNL1        0.0001
@<TRIPOS>UNITY_ATOM_ATTR
36 1
charge -1
@<TRIPOS>BOND
     1     1     2    1
     2     2     3   ar
     3     3     4   ar
     4     4     5   ar
     5     5     6   ar
     6     6     7   ar
     7     7     8   ar
     8     8    22    1
     9    22    38    1
    10    38    39    1
    11    39    40    1
    12    39    41    1
    13    22    23    1
    14    23    24   ar
    15    24    25   ar
    16    25    26   ar
    17    26    29    1
    18    29    30    2
    19    29    31   am
    20    31    33    1
    21    33    34    1
    22    34    35    1
    23    35    36   ar
    24    35    37   ar
    25    26    27   ar
    26    27    28   ar
    27     5     9   ar
    28     9    10   ar
    29    10    11    1
    30    11    12   ar
    31    12    13   ar
    32    13    14   ar
    33    14    18    1
    34    18    19    1
    35    18    20    1
    36    18    21    1
    37    14    15   ar
    38    15    16   ar
    39    16    17    1
    40    10     2   ar
    41    16    11   ar
    42     8     4   ar
    43    28    23   ar
    44    31    32    1
@<TRIPOS>MOLECULE
*****
 41 44 0 0 0
SMALL
GASTEIGER

@<TRIPOS>ATOM
      1 C          60.1292   88.0294   11.2809 C.3     1  UNL1        0.0311
      2 C          60.9741   86.9285   10.7115 C.ar    1  UNL1       -0.0203
      3 C          61.6729   85.9688   11.6285 C.ar    1  UNL1        0.0145
      4 C          62.5179   84.8679   11.0592 C.ar    1  UNL1        0.0794
      5 C          62.6640   84.7266    9.5730 C.ar    1  UNL1        0.0382
      6 C          63.5568   83.5516    9.3046 C.ar    1  UNL1        0.1216
      7 N          63.9625   82.9666   10.6249 N.ar    1  UNL1       -0.1675
      8 N          63.3204   83.7801   11.7093 N.ar    1  UNL1       -0.2487
      9 C          61.9651   85.6863    8.6561 C.ar    1  UNL1        0.0028
     10 C          61.1202   86.7872    9.2255 C.ar    1  UNL1       -0.0030
     11 C          60.4213   87.7469    8.3085 C.ar    1  UNL1        0.0103
     12 C          59.3792   87.2469    7.3525 C.ar    1  UNL1        0.0008
     13 C          58.6804   88.2065    6.4356 C.ar    1  UNL1        0.0039
     14 C          59.0236   89.6661    6.4747 C.ar    1  UNL1        0.0723
     15 C          60.0657   90.1662    7.4307 C.ar    1  UNL1        0.0152
     16 C          60.7646   89.2066    8.3476 C.ar    1  UNL1        0.0576
     17 CL         61.8067   89.7065    9.3037 Cl      1  UNL1       -0.0823
     18 C          58.3248   90.6258    5.5579 C.3     1  UNL1        0.4186
     19 F          57.6259   91.5855    4.6410 F       1  UNL1       -0.1659
     20 F          56.9976   90.1102    6.0296 F       1  UNL1       -0.1659
     21 F          59.6520   91.1415    5.0860 F       1  UNL1       -0.1659
     22 C          63.4569   83.5468   13.1847 C.3     1  UNL1        0.1273
     23 C          63.4289   84.7084   14.1334 C.ar    1  UNL1       -0.0001
     24 C          64.2661   85.9221   13.8580 C.ar    1  UNL1       -0.0023
     25 C          64.2380   87.0836   14.8067 C.ar    1  UNL1        0.0042
     26 C          63.3727   87.0314   16.0309 C.ar    1  UNL1        0.0533
     27 C          62.5355   85.8178   16.3063 C.ar    1  UNL1        0.0042
     28 C          62.5635   84.6562   15.3577 C.ar    1  UNL1       -0.0023
     29 C          63.3446   88.1930   16.9796 C.2     1  UNL1        0.2459
     30 O          63.1171   87.9601   18.4438 O.2     1  UNL1       -0.2701
     31 N          63.5441   89.5874   16.4641 N.am    1  UNL1       -0.3005
     32 H          63.6935   89.7403   15.5031 H       1  UNL1        0.1498
     33 C          63.5161   90.7489   17.4128 C.3     1  UNL1        0.0956
     34 C          64.2627   92.0068   17.0806 C.3     1  UNL1        0.0629
     35 C          65.1151   92.0698   15.8480 C.2     1  UNL1        0.0520
     36 O          64.5529   91.6420   14.5248 O.co2   1  UNL1       -0.5491
     37 O          66.5297   92.5605   15.9387 O.co2   1  UNL1       -0.5491
     38 C          63.6215   82.1520   13.7115 C.3     1  UNL1        0.0289
     39 C          62.5577   81.1250   13.4598 C.3     1  UNL1        0.0023
     40 C          61.2800   81.1606   14.2447 C.3     1  UNL1        0.0001
     41 C          62.7716   80.0621   12.4230 C.3     1  UNL1        0.0001
@<TRIPOS>UNITY_ATOM_ATTR
36 1
charge -1
@<TRIPOS>BOND
     1     1     2    1
     2     2     3   ar
     3     3     4   ar
     4     4     5   ar
     5     5     6   ar
     6     6     7   ar
     7     7     8   ar
     8     8    22    1
     9    22    38    1
    10    38    39    1
    11    39    40    1
    12    39    41    1
    13    22    23    1
    14    23    24   ar
    15    24    25   ar
    16    25    26   ar
    17    26    29    1
    18    29    30    2
    19    29    31   am
    20    31    33    1
    21    33    34    1
    22    34    35    1
    23    35    36   ar
    24    35    37   ar
    25    26    27   ar
    26    27    28   ar
    27     5     9   ar
    28     9    10   ar
    29    10    11    1
    30    11    12   ar
    31    12    13   ar
    32    13    14   ar
    33    14    18    1
    34    18    19    1
    35    18    20    1
    36    18    21    1
    37    14    15   ar
    38    15    16   ar
    39    16    17    1
    40    10     2   ar
    41    16    11   ar
    42     8     4   ar
    43    28    23   ar
    44    31    32    1
