@<TRIPOS>MOLECULE
*****
 37 41 0 0 0
SMALL
GASTEIGER

@<TRIPOS>ATOM
      1 N          65.4548   92.7791   11.8533 N.ar    1  UNL1       -0.2757
      2 C          66.3150   93.5170   12.8358 C.ar    1  UNL1        0.3342
      3 O          67.1768   94.6540   12.3724 O.2     1  UNL1       -0.2462
      4 N          66.3136   93.1179   14.2818 N.ar    1  UNL1       -0.2467
      5 C          67.1740   93.8559   15.2643 C.3     1  UNL1        0.1382
      6 C          65.4520   91.9809   14.7452 C.ar    1  UNL1        0.2663
      7 O          65.4506   91.5818   16.1911 O.2     1  UNL1       -0.2668
      8 C          64.5917   91.2430   13.7626 C.ar    1  UNL1        0.0829
      9 C          63.6458   90.0902   13.9244 C.ar    1  UNL1        0.0624
     10 C          63.0625   89.7768   12.5784 C.ar    1  UNL1        0.0176
     11 S          63.6480   90.7359   11.5848 S.2     1  UNL1       -0.0734
     12 C          64.5931   91.6421   12.3167 C.ar    1  UNL1        0.0982
     13 C          63.3373   89.3761   15.2069 C.2     1  UNL1        0.2495
     14 O          62.6698   90.1099   16.3321 O.2     1  UNL1       -0.2699
     15 N          63.6962   87.9282   15.3643 N.am    1  UNL1       -0.2735
     16 C          63.4513   87.0864   16.5814 C.3     1  UNL1        0.0964
     17 C          63.9668   85.7058   16.3015 C.3     1  UNL1        0.0525
     18 C          64.5303   85.6944   14.9115 C.3     1  UNL1        0.1320
     19 O          65.1519   84.5164   14.2217 O.3     1  UNL1       -0.3827
     20 C          64.3631   87.0679   14.3322 C.3     1  UNL1        0.1228
     21 H          65.1366   83.7492   14.8151 H       1  UNL1        0.2104
     22 C          65.4562   93.1782   10.4074 C.3     1  UNL1        0.1109
     23 C          67.0145   94.6215    8.9113 C.3     1  UNL1        0.0020
     24 C          66.7557   93.3602    9.6808 C.3     1  UNL1        0.0228
     25 C          67.7967   92.2810    9.7238 C.3     1  UNL1        0.0020
     26 C          62.0684   88.6943   12.2787 C.3     1  UNL1        0.0595
     27 C          61.3727   88.6618   10.9501 C.ar    1  UNL1       -0.0142
     28 C          60.4621   89.7855   10.5526 C.ar    1  UNL1        0.0168
     29 C          59.7665   89.7530    9.2241 C.ar    1  UNL1        0.0985
     30 N          59.9815   88.5967    8.2930 N.ar    1  UNL1       -0.2439
     31 C          60.8921   87.4730    8.6905 C.ar    1  UNL1        0.0812
     32 C          61.1070   86.3167    7.7595 C.ar    1  UNL1        0.0214
     33 C          62.0176   85.1930    8.1570 C.ar    1  UNL1        0.0312
     34 C          62.7133   85.2255    9.4856 C.ar    1  UNL1        0.1402
     35 F          63.6238   84.1017    9.8831 F       1  UNL1       -0.2042
     36 C          62.4983   86.3817   10.4166 C.ar    1  UNL1        0.0308
     37 C          61.5877   87.5055   10.0191 C.ar    1  UNL1        0.0163
@<TRIPOS>BOND
     1    23    24    1
     2    24    25    1
     3    24    22    1
     4    22     1    1
     5     1     2   ar
     6     2     3    2
     7     2     4   ar
     8     4     5    1
     9     4     6   ar
    10     6     7    2
    11     6     8   ar
    12     8     9   ar
    13     9    13    1
    14    13    14    2
    15    13    15   am
    16    15    16    1
    17    16    17    1
    18    17    18    1
    19    18    19    1
    20    18    20    1
    21     9    10   ar
    22    10    26    1
    23    26    27    1
    24    27    28   ar
    25    28    29   ar
    26    29    30   ar
    27    30    31   ar
    28    31    32   ar
    29    32    33   ar
    30    33    34   ar
    31    34    35    1
    32    34    36   ar
    33    36    37   ar
    34    10    11   ar
    35    11    12   ar
    36    12     1   ar
    37    12     8   ar
    38    20    15    1
    39    37    27   ar
    40    37    31   ar
    41    19    21    1
@<TRIPOS>MOLECULE
*****
 37 41 0 0 0
SMALL
GASTEIGER

@<TRIPOS>ATOM
      1 N          65.2915   92.6055   11.9212 N.ar    1  UNL1       -0.2757
      2 C          66.2202   93.1519   12.9647 C.ar    1  UNL1        0.3342
      3 O          67.2027   94.2270   12.6055 O.2     1  UNL1       -0.2462
      4 N          66.1664   92.6233   14.3674 N.ar    1  UNL1       -0.2467
      5 C          67.0952   93.1698   15.4110 C.3     1  UNL1        0.1382
      6 C          65.1839   91.5483   14.7267 C.ar    1  UNL1        0.2663
      7 O          65.1301   91.0197   16.1294 O.2     1  UNL1       -0.2668
      8 C          64.2553   91.0019   13.6832 C.ar    1  UNL1        0.0829
      9 C          63.1892   89.9483   13.7409 C.ar    1  UNL1        0.0624
     10 C          62.5841   89.8256   12.3738 C.ar    1  UNL1        0.0176
     11 S          63.2762   90.8035   11.4712 S.2     1  UNL1       -0.0734
     12 C          64.3090   91.5305   12.2804 C.ar    1  UNL1        0.0982
     13 C          62.7971   89.1563   14.9529 C.2     1  UNL1        0.2495
     14 O          61.7393   89.6778   15.8797 O.2     1  UNL1       -0.2699
     15 N          63.4628   87.8426   15.2381 N.am    1  UNL1       -0.2735
     16 C          63.1769   86.9442   16.4048 C.3     1  UNL1        0.0964
     17 C          64.0687   85.7431   16.2944 C.3     1  UNL1        0.0525
     18 C          64.9057   85.8993   15.0596 C.3     1  UNL1        0.1320
     19 O          65.9363   84.9284   14.5644 O.3     1  UNL1       -0.3827
     20 C          64.5313   87.1968   14.4067 C.3     1  UNL1        0.1228
     21 H          65.9841   84.1713   15.1690 H       1  UNL1        0.2104
     22 C          65.3453   93.1341   10.5184 C.3     1  UNL1        0.1109
     23 C          67.6783   92.2085    9.8475 C.3     1  UNL1        0.0020
     24 C          66.6685   93.3176    9.8363 C.3     1  UNL1        0.0228
     25 C          66.9820   94.6103    9.1430 C.3     1  UNL1        0.0020
     26 C          61.4807   88.8895   11.9788 C.3     1  UNL1        0.0595
     27 C          61.8019   87.6117   11.2616 C.ar    1  UNL1       -0.0142
     28 C          62.7341   86.6157   11.8851 C.ar    1  UNL1        0.0168
     29 C          63.0553   85.3380   11.1680 C.ar    1  UNL1        0.0985
     30 N          62.4443   85.0564    9.8273 N.ar    1  UNL1       -0.2439
     31 C          61.5122   86.0525    9.2038 C.ar    1  UNL1        0.0812
     32 C          60.9012   85.7709    7.8631 C.ar    1  UNL1        0.0214
     33 C          59.9690   86.7670    7.2396 C.ar    1  UNL1        0.0312
     34 C          59.6478   88.0447    7.9567 C.ar    1  UNL1        0.1402
     35 F          58.7156   89.0408    7.3332 F       1  UNL1       -0.2042
     36 C          60.2587   88.3263    9.2974 C.ar    1  UNL1        0.0308
     37 C          61.1910   87.3302    9.9209 C.ar    1  UNL1        0.0163
@<TRIPOS>BOND
     1    23    24    1
     2    24    25    1
     3    24    22    1
     4    22     1    1
     5     1     2   ar
     6     2     3    2
     7     2     4   ar
     8     4     5    1
     9     4     6   ar
    10     6     7    2
    11     6     8   ar
    12     8     9   ar
    13     9    13    1
    14    13    14    2
    15    13    15   am
    16    15    16    1
    17    16    17    1
    18    17    18    1
    19    18    19    1
    20    18    20    1
    21     9    10   ar
    22    10    26    1
    23    26    27    1
    24    27    28   ar
    25    28    29   ar
    26    29    30   ar
    27    30    31   ar
    28    31    32   ar
    29    32    33   ar
    30    33    34   ar
    31    34    35    1
    32    34    36   ar
    33    36    37   ar
    34    10    11   ar
    35    11    12   ar
    36    12     1   ar
    37    12     8   ar
    38    20    15    1
    39    37    27   ar
    40    37    31   ar
    41    19    21    1
@<TRIPOS>MOLECULE
*****
 37 41 0 0 0
SMALL
GASTEIGER

@<TRIPOS>ATOM
      1 N          65.2961   92.4693   11.8574 N.ar    1  UNL1       -0.2757
      2 C          66.1354   93.1557   12.8940 C.ar    1  UNL1        0.3342
      3 O          67.0327   94.2916   12.5006 O.2     1  UNL1       -0.2462
      4 N          66.0774   92.7063   14.3239 N.ar    1  UNL1       -0.2467
      5 C          66.9167   93.3928   15.3605 C.3     1  UNL1        0.1382
      6 C          65.1801   91.5705   14.7173 C.ar    1  UNL1        0.2663
      7 O          65.1221   91.1211   16.1472 O.2     1  UNL1       -0.2668
      8 C          64.3409   90.8840   13.6807 C.ar    1  UNL1        0.0829
      9 C          63.3694   89.7445   13.7694 C.ar    1  UNL1        0.0624
     10 C          62.8271   89.4897   12.3943 C.ar    1  UNL1        0.0176
     11 S          63.4633   90.4717   11.4558 S.2     1  UNL1       -0.0734
     12 C          64.3989   91.3334   12.2508 C.ar    1  UNL1        0.0982
     13 C          63.0045   88.9920   15.0146 C.2     1  UNL1        0.2495
     14 O          61.9948   89.5616   15.9664 O.2     1  UNL1       -0.2699
     15 N          63.6493   87.6698   15.3080 N.am    1  UNL1       -0.2735
     16 C          63.3862   86.8072   16.5067 C.3     1  UNL1        0.0964
     17 C          64.2448   85.5824   16.3937 C.3     1  UNL1        0.0525
     18 C          65.0384   85.6880   15.1253 C.3     1  UNL1        0.1320
     19 O          66.0266   84.6805   14.6172 O.3     1  UNL1       -0.3827
     20 C          64.6704   86.9781   14.4543 C.3     1  UNL1        0.1228
     21 H          66.0792   83.9374   15.2384 H       1  UNL1        0.2104
     22 C          65.3542   92.9187   10.4275 C.3     1  UNL1        0.1109
     23 C          67.7626   92.1756    9.7974 C.3     1  UNL1        0.0020
     24 C          66.6782   93.2119    9.7866 C.3     1  UNL1        0.0228
     25 C          66.9180   94.5415    9.1349 C.3     1  UNL1        0.0020
     26 C          61.8245   88.4376   12.0230 C.3     1  UNL1        0.0595
     27 C          62.1846   87.3775   11.0247 C.ar    1  UNL1       -0.0142
     28 C          62.3489   87.7351    9.5773 C.ar    1  UNL1        0.0168
     29 C          62.7090   86.6750    8.5790 C.ar    1  UNL1        0.0985
     30 N          62.9048   85.2573    9.0282 N.ar    1  UNL1       -0.2439
     31 C          62.7405   84.8997   10.4756 C.ar    1  UNL1        0.0812
     32 C          62.9363   83.4820   10.9248 C.ar    1  UNL1        0.0214
     33 C          62.7720   83.1243   12.3722 C.ar    1  UNL1        0.0312
     34 C          62.4119   84.1845   13.3706 C.ar    1  UNL1        0.1402
     35 F          62.2476   83.8268   14.8180 F       1  UNL1       -0.2042
     36 C          62.2161   85.6022   12.9214 C.ar    1  UNL1        0.0308
     37 C          62.3804   85.9598   11.4739 C.ar    1  UNL1        0.0163
@<TRIPOS>BOND
     1    23    24    1
     2    24    25    1
     3    24    22    1
     4    22     1    1
     5     1     2   ar
     6     2     3    2
     7     2     4   ar
     8     4     5    1
     9     4     6   ar
    10     6     7    2
    11     6     8   ar
    12     8     9   ar
    13     9    13    1
    14    13    14    2
    15    13    15   am
    16    15    16    1
    17    16    17    1
    18    17    18    1
    19    18    19    1
    20    18    20    1
    21     9    10   ar
    22    10    26    1
    23    26    27    1
    24    27    28   ar
    25    28    29   ar
    26    29    30   ar
    27    30    31   ar
    28    31    32   ar
    29    32    33   ar
    30    33    34   ar
    31    34    35    1
    32    34    36   ar
    33    36    37   ar
    34    10    11   ar
    35    11    12   ar
    36    12     1   ar
    37    12     8   ar
    38    20    15    1
    39    37    27   ar
    40    37    31   ar
    41    19    21    1
@<TRIPOS>MOLECULE
*****
 37 41 0 0 0
SMALL
GASTEIGER

@<TRIPOS>ATOM
      1 N          61.2512   87.8394   10.1388 N.ar    1  UNL1       -0.2757
      2 C          60.8285   87.3670    8.7794 C.ar    1  UNL1        0.3342
      3 O          60.0084   88.2602    7.8963 O.2     1  UNL1       -0.2462
      4 N          61.2258   86.0013    8.3029 N.ar    1  UNL1       -0.2467
      5 C          60.8030   85.5288    6.9434 C.3     1  UNL1        0.1382
      6 C          62.0458   85.1080    9.1858 C.ar    1  UNL1        0.2663
      7 O          62.4432   83.7424    8.7094 O.2     1  UNL1       -0.2668
      8 C          62.4685   85.5805   10.5452 C.ar    1  UNL1        0.0829
      9 C          63.2737   84.9275   11.6293 C.ar    1  UNL1        0.0624
     10 C          63.3740   85.8895   12.7758 C.ar    1  UNL1        0.0176
     11 S          62.6309   87.1372   12.4002 S.2     1  UNL1       -0.0734
     12 C          62.0712   86.9462   11.0217 C.ar    1  UNL1        0.0982
     13 C          63.8733   83.5535   11.5762 C.2     1  UNL1        0.2495
     14 O          65.1069   83.3046   10.7601 O.2     1  UNL1       -0.2699
     15 N          63.2392   82.4285   12.3394 N.am    1  UNL1       -0.2735
     16 C          63.7228   81.0092   12.3819 C.3     1  UNL1        0.0964
     17 C          62.7927   80.2288   13.2627 C.3     1  UNL1        0.0525
     18 C          61.7343   81.1658   13.7646 C.3     1  UNL1        0.1320
     19 O          60.5992   80.8064   14.6769 O.3     1  UNL1       -0.3827
     20 C          62.0103   82.5252   13.1939 C.3     1  UNL1        0.1228
     21 H          60.6494   79.8636   14.8995 H       1  UNL1        0.2104
     22 C          60.8539   89.2051   10.6152 C.3     1  UNL1        0.1109
     23 C          62.0427   90.7885   12.2973 C.3     1  UNL1        0.0020
     24 C          61.9065   90.2319   10.9111 C.3     1  UNL1        0.0228
     25 C          62.8230   90.7022    9.8207 C.3     1  UNL1        0.0020
     26 C          64.0916   85.6466   14.0705 C.3     1  UNL1        0.0595
     27 C          63.6232   86.3214   15.3256 C.ar    1  UNL1       -0.0142
     28 C          63.0098   85.5110   16.4288 C.ar    1  UNL1        0.0168
     29 C          62.5415   86.1858   17.6838 C.ar    1  UNL1        0.0985
     30 N          62.6865   87.6711   17.8357 N.ar    1  UNL1       -0.2439
     31 C          63.2999   88.4815   16.7326 C.ar    1  UNL1        0.0812
     32 C          63.4449   89.9667   16.8845 C.ar    1  UNL1        0.0214
     33 C          64.0583   90.7771   15.7813 C.ar    1  UNL1        0.0312
     34 C          64.5267   90.1023   14.5262 C.ar    1  UNL1        0.1402
     35 F          65.1400   90.9127   13.4230 F       1  UNL1       -0.2042
     36 C          64.3816   88.6170   14.3743 C.ar    1  UNL1        0.0308
     37 C          63.7682   87.8066   15.4775 C.ar    1  UNL1        0.0163
@<TRIPOS>BOND
     1    23    24    1
     2    24    25    1
     3    24    22    1
     4    22     1    1
     5     1     2   ar
     6     2     3    2
     7     2     4   ar
     8     4     5    1
     9     4     6   ar
    10     6     7    2
    11     6     8   ar
    12     8     9   ar
    13     9    13    1
    14    13    14    2
    15    13    15   am
    16    15    16    1
    17    16    17    1
    18    17    18    1
    19    18    19    1
    20    18    20    1
    21     9    10   ar
    22    10    26    1
    23    26    27    1
    24    27    28   ar
    25    28    29   ar
    26    29    30   ar
    27    30    31   ar
    28    31    32   ar
    29    32    33   ar
    30    33    34   ar
    31    34    35    1
    32    34    36   ar
    33    36    37   ar
    34    10    11   ar
    35    11    12   ar
    36    12     1   ar
    37    12     8   ar
    38    20    15    1
    39    37    27   ar
    40    37    31   ar
    41    19    21    1
@<TRIPOS>MOLECULE
*****
 37 41 0 0 0
SMALL
GASTEIGER

@<TRIPOS>ATOM
      1 N          65.8484   92.5173   13.8566 N.ar    1  UNL1       -0.2757
      2 C          66.0422   93.5446   12.7809 C.ar    1  UNL1        0.3342
      3 O          66.9170   94.7371   13.0314 O.2     1  UNL1       -0.2462
      4 N          65.3612   93.3793   11.4547 N.ar    1  UNL1       -0.2467
      5 C          65.5550   94.4066   10.3789 C.3     1  UNL1        0.1382
      6 C          64.4864   92.1869   11.2041 C.ar    1  UNL1        0.2663
      7 O          63.8054   92.0217    9.8779 O.2     1  UNL1       -0.2668
      8 C          64.2927   91.1597   12.2799 C.ar    1  UNL1        0.0829
      9 C          63.4955   89.8898   12.3232 C.ar    1  UNL1        0.0624
     10 C          63.6838   89.2701   13.6762 C.ar    1  UNL1        0.0176
     11 S          64.5974   90.1571   14.4691 S.2     1  UNL1       -0.0734
     12 C          64.9737   91.3249   13.6061 C.ar    1  UNL1        0.0982
     13 C          62.6572   89.3366   11.2091 C.2     1  UNL1        0.2495
     14 O          63.2914   88.9873    9.8955 O.2     1  UNL1       -0.2699
     15 N          61.1845   89.1328   11.4086 N.am    1  UNL1       -0.2735
     16 C          60.2236   88.5915   10.3919 C.3     1  UNL1        0.0964
     17 C          58.8594   88.5586   11.0149 C.3     1  UNL1        0.0525
     18 C          58.9773   89.0797   12.4165 C.3     1  UNL1        0.1320
     19 O          57.8552   89.2210   13.4018 O.3     1  UNL1       -0.3827
     20 C          60.4142   89.4345   12.6599 C.3     1  UNL1        0.1228
     21 H          57.0274   88.9215   12.9943 H       1  UNL1        0.2104
     22 C          66.5295   92.6826   15.1829 C.3     1  UNL1        0.1109
     23 C          68.8980   91.9290   14.4265 C.3     1  UNL1        0.0020
     24 C          68.0210   92.8276   15.2472 C.3     1  UNL1        0.0228
     25 C          68.6357   93.8711   16.1322 C.3     1  UNL1        0.0020
     26 C          63.0669   87.9886   14.1526 C.3     1  UNL1        0.0595
     27 C          63.8440   86.7079   14.0752 C.ar    1  UNL1       -0.0142
     28 C          64.9058   86.4122   15.0927 C.ar    1  UNL1        0.0168
     29 C          65.6828   85.1316   15.0153 C.ar    1  UNL1        0.0985
     30 N          65.3982   84.1466   13.9204 N.ar    1  UNL1       -0.2439
     31 C          64.3364   84.4422   12.9029 C.ar    1  UNL1        0.0812
     32 C          64.0517   83.4572   11.8081 C.ar    1  UNL1        0.0214
     33 C          62.9900   83.7529   10.7906 C.ar    1  UNL1        0.0312
     34 C          62.2129   85.0336   10.8680 C.ar    1  UNL1        0.1402
     35 F          61.1511   85.3292    9.8506 F       1  UNL1       -0.2042
     36 C          62.4975   86.0186   11.9629 C.ar    1  UNL1        0.0308
     37 C          63.5593   85.7229   12.9804 C.ar    1  UNL1        0.0163
@<TRIPOS>BOND
     1    23    24    1
     2    24    25    1
     3    24    22    1
     4    22     1    1
     5     1     2   ar
     6     2     3    2
     7     2     4   ar
     8     4     5    1
     9     4     6   ar
    10     6     7    2
    11     6     8   ar
    12     8     9   ar
    13     9    13    1
    14    13    14    2
    15    13    15   am
    16    15    16    1
    17    16    17    1
    18    17    18    1
    19    18    19    1
    20    18    20    1
    21     9    10   ar
    22    10    26    1
    23    26    27    1
    24    27    28   ar
    25    28    29   ar
    26    29    30   ar
    27    30    31   ar
    28    31    32   ar
    29    32    33   ar
    30    33    34   ar
    31    34    35    1
    32    34    36   ar
    33    36    37   ar
    34    10    11   ar
    35    11    12   ar
    36    12     1   ar
    37    12     8   ar
    38    20    15    1
    39    37    27   ar
    40    37    31   ar
    41    19    21    1
