@<TRIPOS>MOLECULE
*****
 32 35 0 0 0
SMALL
GASTEIGER

@<TRIPOS>ATOM
      1 N          62.5061   87.0858   11.6474 N.3     1  UNL1       -0.2643
      2 C          62.7495   88.5442   11.3951 C.3     1  UNL1        0.0981
      3 C          62.2974   89.1684   10.1083 C.3     1  UNL1        0.0224
      4 C          62.5409   90.6269    9.8560 C.3     1  UNL1        0.0065
      5 C          63.2363   91.4611   10.8905 C.3     1  UNL1        0.0277
      6 C          63.6884   90.8369   12.1774 C.ar    1  UNL1       -0.0073
      7 C          64.3839   91.6711   13.2120 C.ar    1  UNL1       -0.0015
      8 C          64.8359   91.0469   14.4988 C.ar    1  UNL1        0.0203
      9 C          64.5925   89.5885   14.7511 C.ar    1  UNL1        0.0985
     10 N          63.8970   88.7542   13.7165 N.ar    1  UNL1       -0.2471
     11 C          63.4450   89.3784   12.4296 C.ar    1  UNL1        0.0695
     12 C          61.4518   86.3557   10.8692 C.3     1  UNL1        0.0971
     13 C          63.0053   85.1745    9.1542 C.3     1  UNL1        0.0298
     14 C          61.7326   85.9043    9.4666 C.2     1  UNL1       -0.0033
     15 C          60.7407   86.1828    8.3763 C.2     1  UNL1        0.1267
     16 F          61.0215   85.7314    6.9737 F       1  UNL1       -0.2080
     17 C          59.4681   86.9127    8.6887 C.3     1  UNL1        0.1220
     18 N          58.2837   86.7785    7.7781 N.3     1  UNL1       -0.3156
     19 H          58.5017   87.1953    6.8730 H       1  UNL1        0.1192
     20 H          57.4828   87.2580    8.1891 H       1  UNL1        0.1192
     21 C          63.3169   86.3573   12.6779 C.3     1  UNL1        0.0888
     22 C          62.9526   84.9545   13.0645 C.3     1  UNL1        0.0748
     23 C          63.1918   83.8261   12.1056 C.3     1  UNL1        0.0432
     24 C          62.8276   82.4233   12.4922 C.ar    1  UNL1       -0.0234
     25 C          63.0667   81.2949   11.5333 C.ar    1  UNL1       -0.0045
     26 C          62.7025   79.8921   11.9200 C.ar    1  UNL1       -0.0003
     27 C          62.0991   79.6177   13.2656 C.ar    1  UNL1       -0.0003
     28 C          61.8600   80.7461   14.2245 C.ar    1  UNL1       -0.0032
     29 C          62.2242   82.1488   13.8379 C.ar    1  UNL1       -0.0103
     30 C          61.9851   83.2773   14.7968 C.3     1  UNL1        0.0953
     31 N          62.3493   84.6800   14.4101 N.3     1  UNL1       -0.2934
     32 H          63.0168   85.0133   15.1056 H       1  UNL1        0.1236
@<TRIPOS>BOND
     1    13    14    1
     2    14    12    1
     3    12     1    1
     4     1    21    1
     5    22    21    1
     6    22    23    1
     7    23    24    1
     8    24    25   ar
     9    25    26   ar
    10    26    27   ar
    11    27    28   ar
    12    28    29   ar
    13    29    30    1
    14    30    31    1
    15     2     1    1
    16     2     3    1
    17     3     4    1
    18     4     5    1
    19     5     6    1
    20     6     7   ar
    21     7     8   ar
    22     8     9   ar
    23     9    10   ar
    24    10    11   ar
    25    14    15    2
    26    15    16    1
    27    15    17    1
    28    17    18    1
    29    31    22    1
    30    11     2    1
    31    29    24   ar
    32    11     6   ar
    33    31    32    1
    34    18    19    1
    35    18    20    1
@<TRIPOS>MOLECULE
*****
 32 35 0 0 0
SMALL
GASTEIGER

@<TRIPOS>ATOM
      1 N          61.6304   87.5424   11.3406 N.3     1  UNL1       -0.2643
      2 C          62.2751   86.3741   10.6553 C.3     1  UNL1        0.0981
      3 C          62.5579   86.4306    9.1833 C.3     1  UNL1        0.0224
      4 C          63.2025   85.2623    8.4981 C.3     1  UNL1        0.0065
      5 C          63.5643   84.0375    9.2848 C.3     1  UNL1        0.0277
      6 C          63.2815   83.9811   10.7568 C.ar    1  UNL1       -0.0073
      7 C          63.6434   82.7563   11.5436 C.ar    1  UNL1       -0.0015
      8 C          63.3606   82.6998   13.0156 C.ar    1  UNL1        0.0203
      9 C          62.7159   83.8681   13.7009 C.ar    1  UNL1        0.0985
     10 N          62.3541   85.0928   12.9141 N.ar    1  UNL1       -0.2471
     11 C          62.6369   85.1494   11.4420 C.ar    1  UNL1        0.0695
     12 C          60.2241   87.9325   10.9942 C.3     1  UNL1        0.0971
     13 C          59.9956   90.4490   10.3900 C.3     1  UNL1        0.0298
     14 C          59.9725   89.0069    9.9781 C.2     1  UNL1       -0.0033
     15 C          59.6978   88.6391    8.5500 C.2     1  UNL1        0.1267
     16 F          59.4461   89.7134    7.5339 F       1  UNL1       -0.2080
     17 C          59.6747   87.1970    8.1381 C.3     1  UNL1        0.1220
     18 N          58.3835   86.5560    7.7236 N.3     1  UNL1       -0.3156
     19 H          57.7520   86.5151    8.5235 H       1  UNL1        0.1192
     20 H          58.5661   85.6110    7.3859 H       1  UNL1        0.1192
     21 C          62.3921   88.3205   12.3722 C.3     1  UNL1        0.0888
     22 C          63.1354   89.5622   11.9774 C.3     1  UNL1        0.0748
     23 C          64.0055   90.2652   12.9767 C.3     1  UNL1        0.0432
     24 C          64.7488   91.5069   12.5818 C.ar    1  UNL1       -0.0234
     25 C          65.6190   92.2098   13.5811 C.ar    1  UNL1       -0.0045
     26 C          66.3622   93.4514   13.1863 C.ar    1  UNL1       -0.0003
     27 C          66.2352   93.9901   11.7922 C.ar    1  UNL1       -0.0003
     28 C          65.3650   93.2872   10.7929 C.ar    1  UNL1       -0.0032
     29 C          64.6218   92.0456   11.1877 C.ar    1  UNL1       -0.0103
     30 C          63.7516   91.3426   10.1884 C.3     1  UNL1        0.0953
     31 N          63.0084   90.1010   10.5832 N.3     1  UNL1       -0.2934
     32 H          63.3157   89.3607    9.9524 H       1  UNL1        0.1236
@<TRIPOS>BOND
     1    13    14    1
     2    14    12    1
     3    12     1    1
     4     1    21    1
     5    22    21    1
     6    22    23    1
     7    23    24    1
     8    24    25   ar
     9    25    26   ar
    10    26    27   ar
    11    27    28   ar
    12    28    29   ar
    13    29    30    1
    14    30    31    1
    15     2     1    1
    16     2     3    1
    17     3     4    1
    18     4     5    1
    19     5     6    1
    20     6     7   ar
    21     7     8   ar
    22     8     9   ar
    23     9    10   ar
    24    10    11   ar
    25    14    15    2
    26    15    16    1
    27    15    17    1
    28    17    18    1
    29    31    22    1
    30    11     2    1
    31    29    24   ar
    32    11     6   ar
    33    31    32    1
    34    18    19    1
    35    18    20    1
@<TRIPOS>MOLECULE
*****
 32 35 0 0 0
SMALL
GASTEIGER

@<TRIPOS>ATOM
      1 N          63.9965   90.0502   13.8090 N.3     1  UNL1       -0.2643
      2 C          64.8921   91.2384   13.9987 C.3     1  UNL1        0.0981
      3 C          65.4629   91.5388   15.3530 C.3     1  UNL1        0.0224
      4 C          66.3585   92.7270   15.5427 C.3     1  UNL1        0.0065
      5 C          66.6834   93.6148   14.3782 C.3     1  UNL1        0.0277
      6 C          66.1126   93.3145   13.0240 C.ar    1  UNL1       -0.0073
      7 C          66.4375   94.2025   11.8594 C.ar    1  UNL1       -0.0015
      8 C          65.8668   93.9022   10.5052 C.ar    1  UNL1        0.0203
      9 C          64.9711   92.7140   10.3154 C.ar    1  UNL1        0.0985
     10 N          64.6462   91.8261   11.4799 N.ar    1  UNL1       -0.2471
     11 C          65.2170   92.1263   12.8342 C.ar    1  UNL1        0.0695
     12 C          64.4172   88.7046   14.3208 C.3     1  UNL1        0.0971
     13 C          63.1466   89.0832   16.5551 C.3     1  UNL1        0.0298
     14 C          63.8115   88.1580   15.5795 C.2     1  UNL1       -0.0033
     15 C          63.8708   86.6861   15.8627 C.2     1  UNL1        0.1267
     16 F          63.2651   86.1395   17.1214 F       1  UNL1       -0.2080
     17 C          64.5357   85.7608   14.8871 C.3     1  UNL1        0.1220
     18 N          63.7277   85.1008   13.8094 N.3     1  UNL1       -0.3156
     19 H          63.0619   84.4537   14.2317 H       1  UNL1        0.1192
     20 H          64.3495   84.5885   13.1837 H       1  UNL1        0.1192
     21 C          62.6801   90.2077   13.1073 C.3     1  UNL1        0.0888
     22 C          62.2589   89.2094   12.0700 C.3     1  UNL1        0.0748
     23 C          61.3699   89.6332   10.9386 C.3     1  UNL1        0.0432
     24 C          60.9487   88.6349    9.9012 C.ar    1  UNL1       -0.0234
     25 C          60.0597   89.0586    8.7699 C.ar    1  UNL1       -0.0045
     26 C          59.6386   88.0603    7.7326 C.ar    1  UNL1       -0.0003
     27 C          60.1065   86.6383    7.8267 C.ar    1  UNL1       -0.0003
     28 C          60.9955   86.2145    8.9580 C.ar    1  UNL1       -0.0032
     29 C          61.4166   87.2128    9.9953 C.ar    1  UNL1       -0.0103
     30 C          62.3057   86.7891   11.1267 C.3     1  UNL1        0.0953
     31 N          62.7268   87.7874   12.1640 N.3     1  UNL1       -0.2934
     32 H          63.7465   87.8115   12.1526 H       1  UNL1        0.1236
@<TRIPOS>BOND
     1    13    14    1
     2    14    12    1
     3    12     1    1
     4     1    21    1
     5    22    21    1
     6    22    23    1
     7    23    24    1
     8    24    25   ar
     9    25    26   ar
    10    26    27   ar
    11    27    28   ar
    12    28    29   ar
    13    29    30    1
    14    30    31    1
    15     2     1    1
    16     2     3    1
    17     3     4    1
    18     4     5    1
    19     5     6    1
    20     6     7   ar
    21     7     8   ar
    22     8     9   ar
    23     9    10   ar
    24    10    11   ar
    25    14    15    2
    26    15    16    1
    27    15    17    1
    28    17    18    1
    29    31    22    1
    30    11     2    1
    31    29    24   ar
    32    11     6   ar
    33    31    32    1
    34    18    19    1
    35    18    20    1
@<TRIPOS>MOLECULE
*****
 32 35 0 0 0
SMALL
GASTEIGER

@<TRIPOS>ATOM
      1 N          63.4433   83.6824   13.3640 N.3     1  UNL1       -0.2643
      2 C          63.4576   83.9269   11.8841 C.3     1  UNL1        0.0981
      3 C          64.2998   83.0661   10.9899 C.3     1  UNL1        0.0224
      4 C          64.3141   83.3106    9.5100 C.3     1  UNL1        0.0065
      5 C          63.4862   84.4159    8.9244 C.3     1  UNL1        0.0277
      6 C          62.6440   85.2767    9.8187 C.ar    1  UNL1       -0.0073
      7 C          61.8161   86.3820    9.2331 C.ar    1  UNL1       -0.0015
      8 C          60.9739   87.2428   10.1273 C.ar    1  UNL1        0.0203
      9 C          60.9596   86.9983   11.6072 C.ar    1  UNL1        0.0985
     10 N          61.7875   85.8930   12.1928 N.ar    1  UNL1       -0.2471
     11 C          62.6297   85.0322   11.2985 C.ar    1  UNL1        0.0695
     12 C          62.4243   82.7580   13.9616 C.3     1  UNL1        0.0971
     13 C          63.9863   80.6997   13.6914 C.3     1  UNL1        0.0298
     14 C          62.6112   81.2728   13.8655 C.2     1  UNL1       -0.0033
     15 C          61.4228   80.3608   13.9435 C.2     1  UNL1        0.1267
     16 F          61.6097   78.8756   13.8474 F       1  UNL1       -0.2080
     17 C          60.0476   80.9340   14.1176 C.3     1  UNL1        0.1220
     18 N          58.9148   80.0487   14.5452 N.3     1  UNL1       -0.3156
     19 H          58.7231   79.3644   13.8135 H       1  UNL1        0.1192
     20 H          58.0825   80.6158   14.7069 H       1  UNL1        0.1192
     21 C          64.4479   84.3623   14.2462 C.3     1  UNL1        0.0888
     22 C          64.1031   85.6607   14.9135 C.3     1  UNL1        0.0748
     23 C          64.5156   86.9592   14.2861 C.3     1  UNL1        0.0432
     24 C          64.1708   88.2576   14.9533 C.ar    1  UNL1       -0.0234
     25 C          64.5834   89.5561   14.3259 C.ar    1  UNL1       -0.0045
     26 C          64.2385   90.8545   14.9932 C.ar    1  UNL1       -0.0003
     27 C          63.4811   90.8544   16.2879 C.ar    1  UNL1       -0.0003
     28 C          63.0686   89.5559   16.9153 C.ar    1  UNL1       -0.0032
     29 C          63.4134   88.2575   16.2481 C.ar    1  UNL1       -0.0103
     30 C          63.0008   86.9590   16.8755 C.3     1  UNL1        0.0953
     31 N          63.3457   85.6606   16.2083 N.3     1  UNL1       -0.2934
     32 H          62.4652   85.1760   16.0343 H       1  UNL1        0.1236
@<TRIPOS>BOND
     1    13    14    1
     2    14    12    1
     3    12     1    1
     4     1    21    1
     5    22    21    1
     6    22    23    1
     7    23    24    1
     8    24    25   ar
     9    25    26   ar
    10    26    27   ar
    11    27    28   ar
    12    28    29   ar
    13    29    30    1
    14    30    31    1
    15     2     1    1
    16     2     3    1
    17     3     4    1
    18     4     5    1
    19     5     6    1
    20     6     7   ar
    21     7     8   ar
    22     8     9   ar
    23     9    10   ar
    24    10    11   ar
    25    14    15    2
    26    15    16    1
    27    15    17    1
    28    17    18    1
    29    31    22    1
    30    11     2    1
    31    29    24   ar
    32    11     6   ar
    33    31    32    1
    34    18    19    1
    35    18    20    1
@<TRIPOS>MOLECULE
*****
 32 35 0 0 0
SMALL
GASTEIGER

@<TRIPOS>ATOM
      1 N          63.7976   90.1408   13.2668 N.3     1  UNL1       -0.2643
      2 C          64.5814   91.3134   12.7562 C.3     1  UNL1        0.0981
      3 C          64.4513   91.7357   11.3228 C.3     1  UNL1        0.0224
      4 C          65.2351   92.9083   10.8123 C.3     1  UNL1        0.0065
      5 C          66.1490   93.6586   11.7351 C.3     1  UNL1        0.0277
      6 C          66.2792   93.2363   13.1685 C.ar    1  UNL1       -0.0073
      7 C          67.1932   93.9866   14.0915 C.ar    1  UNL1       -0.0015
      8 C          67.3233   93.5643   15.5249 C.ar    1  UNL1        0.0203
      9 C          66.5395   92.3917   16.0354 C.ar    1  UNL1        0.0985
     10 N          65.6255   91.6414   15.1126 N.ar    1  UNL1       -0.2471
     11 C          65.4954   92.0637   13.6791 C.ar    1  UNL1        0.0695
     12 C          64.4629   89.1149   14.1356 C.3     1  UNL1        0.0971
     13 C          63.1881   89.6912   16.3248 C.3     1  UNL1        0.0298
     14 C          63.8094   88.6757   15.4123 C.2     1  UNL1       -0.0033
     15 C          63.7772   87.2209   15.7765 C.2     1  UNL1        0.1267
     16 F          63.1237   86.7817   17.0533 F       1  UNL1       -0.2080
     17 C          64.3985   86.2054   14.8640 C.3     1  UNL1        0.1220
     18 N          63.5472   85.4651   13.8755 N.3     1  UNL1       -0.3156
     19 H          62.8893   84.8664   14.3746 H       1  UNL1        0.1192
     20 H          64.1417   84.8920   13.2768 H       1  UNL1        0.1192
     21 C          62.3484   89.9941   12.9085 C.3     1  UNL1        0.0888
     22 C          61.9335   89.0210   11.8450 C.3     1  UNL1        0.0748
     23 C          61.0782   89.4796   10.7013 C.3     1  UNL1        0.0432
     24 C          60.6633   88.5065    9.6377 C.ar    1  UNL1       -0.0234
     25 C          59.8079   88.9651    8.4941 C.ar    1  UNL1       -0.0045
     26 C          59.3930   87.9921    7.4306 C.ar    1  UNL1       -0.0003
     27 C          59.8336   86.5605    7.5108 C.ar    1  UNL1       -0.0003
     28 C          60.6890   86.1019    8.6544 C.ar    1  UNL1       -0.0032
     29 C          61.1038   87.0749    9.7179 C.ar    1  UNL1       -0.0103
     30 C          61.9593   86.6164   10.8616 C.3     1  UNL1        0.0953
     31 N          62.3741   87.5894   11.9251 N.3     1  UNL1       -0.2934
     32 H          63.3940   87.5954   11.9371 H       1  UNL1        0.1236
@<TRIPOS>BOND
     1    13    14    1
     2    14    12    1
     3    12     1    1
     4     1    21    1
     5    22    21    1
     6    22    23    1
     7    23    24    1
     8    24    25   ar
     9    25    26   ar
    10    26    27   ar
    11    27    28   ar
    12    28    29   ar
    13    29    30    1
    14    30    31    1
    15     2     1    1
    16     2     3    1
    17     3     4    1
    18     4     5    1
    19     5     6    1
    20     6     7   ar
    21     7     8   ar
    22     8     9   ar
    23     9    10   ar
    24    10    11   ar
    25    14    15    2
    26    15    16    1
    27    15    17    1
    28    17    18    1
    29    31    22    1
    30    11     2    1
    31    29    24   ar
    32    11     6   ar
    33    31    32    1
    34    18    19    1
    35    18    20    1
@<TRIPOS>MOLECULE
*****
 32 35 0 0 0
SMALL
GASTEIGER

@<TRIPOS>ATOM
      1 N          62.3946   86.1702   10.3772 N.3     1  UNL1       -0.2643
      2 C          62.9643   84.8282   10.7297 C.3     1  UNL1        0.0981
      3 C          63.5987   83.9802    9.6675 C.3     1  UNL1        0.0224
      4 C          64.1684   82.6381   10.0201 C.3     1  UNL1        0.0065
      5 C          64.1038   82.1441   11.4349 C.3     1  UNL1        0.0277
      6 C          63.4694   82.9921   12.4971 C.ar    1  UNL1       -0.0073
      7 C          63.4048   82.4982   13.9120 C.ar    1  UNL1       -0.0015
      8 C          62.7705   83.3462   14.9742 C.ar    1  UNL1        0.0203
      9 C          62.2007   84.6882   14.6217 C.ar    1  UNL1        0.0985
     10 N          62.2653   85.1822   13.2069 N.ar    1  UNL1       -0.2471
     11 C          62.8997   84.3342   12.1445 C.ar    1  UNL1        0.0695
     12 C          62.2726   86.5790    8.9391 C.3     1  UNL1        0.0971
     13 C          61.1390   84.9911    7.2235 C.3     1  UNL1        0.0298
     14 C          61.0673   86.1734    8.1437 C.2     1  UNL1       -0.0033
     15 C          59.7902   86.9502    8.2686 C.2     1  UNL1        0.1267
     16 F          58.5848   86.5447    7.4732 F       1  UNL1       -0.2080
     17 C          59.7184   88.1326    9.1889 C.3     1  UNL1        0.1220
     18 N          60.2039   89.4740    8.7256 N.3     1  UNL1       -0.3156
     19 H          61.2119   89.4369    8.5736 H       1  UNL1        0.1192
     20 H          59.9927   90.1757    9.4351 H       1  UNL1        0.1192
     21 C          61.9467   87.1036   11.4626 C.3     1  UNL1        0.0888
     22 C          62.6732   88.3966   11.6870 C.3     1  UNL1        0.0748
     23 C          63.4651   88.6037   12.9439 C.3     1  UNL1        0.0432
     24 C          64.1916   89.8968   13.1682 C.ar    1  UNL1       -0.0234
     25 C          64.9835   90.1039   14.4252 C.ar    1  UNL1       -0.0045
     26 C          65.7099   91.3969   14.6495 C.ar    1  UNL1       -0.0003
     27 C          65.6444   92.4828   13.6168 C.ar    1  UNL1       -0.0003
     28 C          64.8525   92.2758   12.3599 C.ar    1  UNL1       -0.0032
     29 C          64.1261   90.9828   12.1356 C.ar    1  UNL1       -0.0103
     30 C          63.3342   90.7756   10.8786 C.3     1  UNL1        0.0953
     31 N          62.6077   89.4826   10.6543 N.3     1  UNL1       -0.2934
     32 H          62.9716   89.0869    9.7874 H       1  UNL1        0.1236
@<TRIPOS>BOND
     1    13    14    1
     2    14    12    1
     3    12     1    1
     4     1    21    1
     5    22    21    1
     6    22    23    1
     7    23    24    1
     8    24    25   ar
     9    25    26   ar
    10    26    27   ar
    11    27    28   ar
    12    28    29   ar
    13    29    30    1
    14    30    31    1
    15     2     1    1
    16     2     3    1
    17     3     4    1
    18     4     5    1
    19     5     6    1
    20     6     7   ar
    21     7     8   ar
    22     8     9   ar
    23     9    10   ar
    24    10    11   ar
    25    14    15    2
    26    15    16    1
    27    15    17    1
    28    17    18    1
    29    31    22    1
    30    11     2    1
    31    29    24   ar
    32    11     6   ar
    33    31    32    1
    34    18    19    1
    35    18    20    1
@<TRIPOS>MOLECULE
*****
 32 35 0 0 0
SMALL
GASTEIGER

@<TRIPOS>ATOM
      1 N          62.2002   87.8215   10.9766 N.3     1  UNL1       -0.2643
      2 C          62.8772   89.1392   11.2122 C.3     1  UNL1        0.0981
      3 C          62.8933   90.1781   10.1305 C.3     1  UNL1        0.0224
      4 C          63.5703   91.4958   10.3661 C.3     1  UNL1        0.0065
      5 C          64.2312   91.7744   11.6834 C.3     1  UNL1        0.0277
      6 C          64.2151   90.7355   12.7652 C.ar    1  UNL1       -0.0073
      7 C          64.8761   91.0141   14.0826 C.ar    1  UNL1       -0.0015
      8 C          64.8600   89.9751   15.1644 C.ar    1  UNL1        0.0203
      9 C          64.1830   88.6575   14.9288 C.ar    1  UNL1        0.0985
     10 N          63.5221   88.3788   13.6114 N.ar    1  UNL1       -0.2471
     11 C          63.5381   89.4178   12.5296 C.ar    1  UNL1        0.0695
     12 C          60.7027   87.7357   10.9845 C.3     1  UNL1        0.0971
     13 C          59.3831   89.8663   10.2998 C.3     1  UNL1        0.0298
     14 C          59.9024   88.4982    9.9706 C.2     1  UNL1       -0.0033
     15 C          59.6214   87.8925    8.6273 C.2     1  UNL1        0.1267
     16 F          58.8211   88.6550    7.6134 F       1  UNL1       -0.2080
     17 C          60.1408   86.5243    8.2981 C.3     1  UNL1        0.1220
     18 N          59.4397   85.6825    7.2735 N.3     1  UNL1       -0.3156
     19 H          58.5109   85.4350    7.6147 H       1  UNL1        0.1192
     20 H          59.9780   84.8325    7.1058 H       1  UNL1        0.1192
     21 C          63.0207   86.5897   10.7331 C.3     1  UNL1        0.0888
     22 C          62.8783   85.4025   11.6388 C.3     1  UNL1        0.0748
     23 C          62.9364   84.0151   11.0715 C.3     1  UNL1        0.0432
     24 C          62.7939   82.8279   11.9772 C.ar    1  UNL1       -0.0234
     25 C          62.8520   81.4405   11.4099 C.ar    1  UNL1       -0.0045
     26 C          62.7096   80.2534   12.3157 C.ar    1  UNL1       -0.0003
     27 C          62.5091   80.4536   13.7887 C.ar    1  UNL1       -0.0003
     28 C          62.4510   81.8409   14.3559 C.ar    1  UNL1       -0.0032
     29 C          62.5934   83.0281   13.4502 C.ar    1  UNL1       -0.0103
     30 C          62.5354   84.4155   14.0175 C.3     1  UNL1        0.0953
     31 N          62.6778   85.6027   13.1118 N.3     1  UNL1       -0.2934
     32 H          63.4799   86.1353   13.4484 H       1  UNL1        0.1236
@<TRIPOS>BOND
     1    13    14    1
     2    14    12    1
     3    12     1    1
     4     1    21    1
     5    22    21    1
     6    22    23    1
     7    23    24    1
     8    24    25   ar
     9    25    26   ar
    10    26    27   ar
    11    27    28   ar
    12    28    29   ar
    13    29    30    1
    14    30    31    1
    15     2     1    1
    16     2     3    1
    17     3     4    1
    18     4     5    1
    19     5     6    1
    20     6     7   ar
    21     7     8   ar
    22     8     9   ar
    23     9    10   ar
    24    10    11   ar
    25    14    15    2
    26    15    16    1
    27    15    17    1
    28    17    18    1
    29    31    22    1
    30    11     2    1
    31    29    24   ar
    32    11     6   ar
    33    31    32    1
    34    18    19    1
    35    18    20    1
@<TRIPOS>MOLECULE
*****
 32 35 0 0 0
SMALL
GASTEIGER

@<TRIPOS>ATOM
      1 N          61.8820   87.7999   10.5683 N.3     1  UNL1       -0.2643
      2 C          62.4342   86.4431   10.2455 C.3     1  UNL1        0.0981
      3 C          62.5144   85.9860    8.8191 C.3     1  UNL1        0.0224
      4 C          63.0666   84.6292    8.4963 C.3     1  UNL1        0.0065
      5 C          63.5384   83.7295    9.5999 C.3     1  UNL1        0.0277
      6 C          63.4582   84.1866   11.0262 C.ar    1  UNL1       -0.0073
      7 C          63.9300   83.2869   12.1299 C.ar    1  UNL1       -0.0015
      8 C          63.8498   83.7441   13.5562 C.ar    1  UNL1        0.0203
      9 C          63.2976   85.1009   13.8790 C.ar    1  UNL1        0.0985
     10 N          62.8258   86.0006   12.7755 N.ar    1  UNL1       -0.2471
     11 C          62.9060   85.5434   11.3490 C.ar    1  UNL1        0.0695
     12 C          60.4649   87.9403   11.0395 C.3     1  UNL1        0.0971
     13 C          59.6996   89.8723    9.4802 C.3     1  UNL1        0.0298
     14 C          59.7316   89.2330   10.8367 C.2     1  UNL1       -0.0033
     15 C          59.0304   89.8865   11.9906 C.2     1  UNL1        0.1267
     16 F          58.2971   91.1793   11.7877 F       1  UNL1       -0.2080
     17 C          59.0625   89.2473   13.3471 C.3     1  UNL1        0.1220
     18 N          57.9405   88.3511   13.7806 N.3     1  UNL1       -0.3156
     19 H          57.0838   88.8976   13.8696 H       1  UNL1        0.1192
     20 H          58.1701   87.9299   14.6807 H       1  UNL1        0.1192
     21 C          62.7470   89.0164   10.4198 C.3     1  UNL1        0.0888
     22 C          63.4023   89.6224   11.6254 C.3     1  UNL1        0.0748
     23 C          64.1670   90.9064   11.4975 C.3     1  UNL1        0.0432
     24 C          64.8224   91.5124   12.7031 C.ar    1  UNL1       -0.0234
     25 C          65.5870   92.7965   12.5751 C.ar    1  UNL1       -0.0045
     26 C          66.2423   93.4024   13.7807 C.ar    1  UNL1       -0.0003
     27 C          66.1331   92.7242   15.1141 C.ar    1  UNL1       -0.0003
     28 C          65.3684   91.4401   15.2421 C.ar    1  UNL1       -0.0032
     29 C          64.7131   90.8342   14.0365 C.ar    1  UNL1       -0.0103
     30 C          63.9484   89.5501   14.1644 C.3     1  UNL1        0.0953
     31 N          63.2931   88.9442   12.9589 N.3     1  UNL1       -0.2934
     32 H          62.2981   88.8698   13.1707 H       1  UNL1        0.1236
@<TRIPOS>BOND
     1    13    14    1
     2    14    12    1
     3    12     1    1
     4     1    21    1
     5    22    21    1
     6    22    23    1
     7    23    24    1
     8    24    25   ar
     9    25    26   ar
    10    26    27   ar
    11    27    28   ar
    12    28    29   ar
    13    29    30    1
    14    30    31    1
    15     2     1    1
    16     2     3    1
    17     3     4    1
    18     4     5    1
    19     5     6    1
    20     6     7   ar
    21     7     8   ar
    22     8     9   ar
    23     9    10   ar
    24    10    11   ar
    25    14    15    2
    26    15    16    1
    27    15    17    1
    28    17    18    1
    29    31    22    1
    30    11     2    1
    31    29    24   ar
    32    11     6   ar
    33    31    32    1
    34    18    19    1
    35    18    20    1
@<TRIPOS>MOLECULE
*****
 32 35 0 0 0
SMALL
GASTEIGER

@<TRIPOS>ATOM
      1 N          62.1960   87.8234   11.8148 N.3     1  UNL1       -0.2643
      2 C          63.0900   88.7482   12.5864 C.3     1  UNL1        0.0981
      3 C          63.4983   88.4011   13.9873 C.3     1  UNL1        0.0224
      4 C          64.3924   89.3259   14.7589 C.3     1  UNL1        0.0065
      5 C          64.8781   90.5979   14.1295 C.3     1  UNL1        0.0277
      6 C          64.4699   90.9450   12.7286 C.ar    1  UNL1       -0.0073
      7 C          64.9557   92.2169   12.0991 C.ar    1  UNL1       -0.0015
      8 C          64.5474   92.5640   10.6981 C.ar    1  UNL1        0.0203
      9 C          63.6533   91.6392    9.9265 C.ar    1  UNL1        0.0985
     10 N          63.1675   90.3673   10.5559 N.ar    1  UNL1       -0.2471
     11 C          63.5758   90.0201   11.9570 C.ar    1  UNL1        0.0695
     12 C          60.7391   88.1450   11.6593 C.3     1  UNL1        0.0971
     13 C          60.0182   90.4917   10.8090 C.3     1  UNL1        0.0298
     14 C          60.2833   89.0393   10.5446 C.2     1  UNL1       -0.0033
     15 C          60.0925   88.4810    9.1655 C.2     1  UNL1        0.1267
     16 F          59.6367   89.3752    8.0508 F       1  UNL1       -0.2080
     17 C          60.3577   87.0285    8.9010 C.3     1  UNL1        0.1220
     18 N          59.4664   86.2608    7.9704 N.3     1  UNL1       -0.3156
     19 H          58.5318   86.1931    8.3732 H       1  UNL1        0.1192
     20 H          59.8456   85.3240    7.8320 H       1  UNL1        0.1192
     21 C          62.7587   86.5770   11.1986 C.3     1  UNL1        0.0888
     22 C          62.6744   85.2725   11.9345 C.3     1  UNL1        0.0748
     23 C          62.8233   83.9797   11.1887 C.3     1  UNL1        0.0432
     24 C          62.7390   82.6753   11.9246 C.ar    1  UNL1       -0.0234
     25 C          62.8879   81.3824   11.1787 C.ar    1  UNL1       -0.0045
     26 C          62.8036   80.0781   11.9146 C.ar    1  UNL1       -0.0003
     27 C          62.5703   80.0666   13.3963 C.ar    1  UNL1       -0.0003
     28 C          62.4214   81.3595   14.1422 C.ar    1  UNL1       -0.0032
     29 C          62.5057   82.6638   13.4063 C.ar    1  UNL1       -0.0103
     30 C          62.3568   83.9567   14.1521 C.3     1  UNL1        0.0953
     31 N          62.4411   85.2611   13.4162 N.3     1  UNL1       -0.2934
     32 H          63.2051   85.7886   13.8387 H       1  UNL1        0.1236
@<TRIPOS>BOND
     1    13    14    1
     2    14    12    1
     3    12     1    1
     4     1    21    1
     5    22    21    1
     6    22    23    1
     7    23    24    1
     8    24    25   ar
     9    25    26   ar
    10    26    27   ar
    11    27    28   ar
    12    28    29   ar
    13    29    30    1
    14    30    31    1
    15     2     1    1
    16     2     3    1
    17     3     4    1
    18     4     5    1
    19     5     6    1
    20     6     7   ar
    21     7     8   ar
    22     8     9   ar
    23     9    10   ar
    24    10    11   ar
    25    14    15    2
    26    15    16    1
    27    15    17    1
    28    17    18    1
    29    31    22    1
    30    11     2    1
    31    29    24   ar
    32    11     6   ar
    33    31    32    1
    34    18    19    1
    35    18    20    1
