@<TRIPOS>MOLECULE
*****
 33 36 0 0 0
SMALL
GASTEIGER

@<TRIPOS>ATOM
      1 C          61.1559   88.5178    9.7448 C.ar    1  UNL1        0.0951
      2 C          60.2374   88.3500    8.5709 C.ar    1  UNL1        0.1454
      3 F          59.2636   89.4355    8.2195 F       1  UNL1       -0.2040
      4 C          60.2926   87.0968    7.7485 C.ar    1  UNL1        0.0312
      5 C          61.2664   86.0114    8.0999 C.ar    1  UNL1        0.0204
      6 C          62.1850   86.1792    9.2739 C.ar    1  UNL1        0.0924
      7 C          62.1298   87.4324   10.0963 C.ar    1  UNL1        0.1598
      8 F          63.0483   87.6001   11.2703 F       1  UNL1       -0.2026
      9 C          61.1007   89.7710   10.5673 C.2     1  UNL1        0.2036
     10 O          59.7835   90.2763   11.0768 O.2     1  UNL1       -0.2863
     11 C          63.7225   90.0200   14.6637 C.2     1  UNL1        0.0974
     12 C          64.9299   90.8998   14.5295 C.2     1  UNL1        0.2421
     13 N          65.2153   91.5884   13.2279 N.2     1  UNL1       -0.0304
     14 C          64.2931   91.3973   12.0604 C.2     1  UNL1        0.3721
     15 N          64.3166   91.9424   10.6631 N.2     1  UNL1       -0.0307
     16 C          63.1235   91.3995    9.9337 C.2     1  UNL1        0.2390
     17 C          62.3628   90.5189   10.8802 C.2     1  UNL1        0.0896
     18 C          63.0857   90.5176   12.1945 C.2     1  UNL1        0.0782
     19 C          62.8003   89.8290   13.4962 C.3     1  UNL1        0.0751
     20 N          63.1518   88.6428   17.2671 N.1     1  UNL1       -0.1910
     21 C          63.4371   89.3314   15.9654 C.1     1  UNL1        0.1003
     22 N          63.1587   85.0937    9.6254 N.pl3   1  UNL1       -0.2127
     23 H          63.9350   84.9219    9.0447 H       1  UNL1        0.1738
     24 S          62.9498   84.2701   10.8614 S.O2    1  UNL1        0.0758
     25 O          61.6483   84.9730   11.1099 O.2     1  UNL1       -0.1499
     26 O          64.2513   83.5671   10.6130 O.2     1  UNL1       -0.1499
     27 C          62.7409   83.4464   12.0976 C.ar    1  UNL1        0.1524
     28 C          62.3524   82.0024   11.9797 C.ar    1  UNL1        0.0225
     29 C          62.1435   81.1786   13.2158 C.ar    1  UNL1        0.0015
     30 C          62.3231   81.7989   14.5697 C.ar    1  UNL1        0.0024
     31 C          62.7116   83.2429   14.6875 C.ar    1  UNL1        0.0310
     32 C          62.9205   84.0666   13.4515 C.ar    1  UNL1        0.1589
     33 F          63.3090   85.5106   13.5692 F       1  UNL1       -0.2027
@<TRIPOS>BOND
     1    20    21    3
     2    21    11    1
     3    11    12    2
     4    12    13    1
     5    13    14    2
     6    14    15    1
     7    15    16    2
     8    16    17    1
     9    17     9    1
    10     9    10    2
    11     9     1    1
    12     1     2   ar
    13     2     3    1
    14     2     4   ar
    15     4     5   ar
    16     5     6   ar
    17     6    22    1
    18    22    24    1
    19    24    25    2
    20    24    26    2
    21    24    27    1
    22    27    28   ar
    23    28    29   ar
    24    29    30   ar
    25    30    31   ar
    26    31    32   ar
    27    32    33    1
    28     6     7   ar
    29     7     8    1
    30    17    18    2
    31    18    19    1
    32    19    11    1
    33    18    14    1
    34     7     1   ar
    35    32    27   ar
    36    22    23    1
@<TRIPOS>MOLECULE
*****
 33 36 0 0 0
SMALL
GASTEIGER

@<TRIPOS>ATOM
      1 C          64.0590   84.5744   13.8860 C.ar    1  UNL1        0.0951
      2 C          63.9049   83.1168   14.2045 C.ar    1  UNL1        0.1454
      3 F          64.5184   82.5527   15.4516 F       1  UNL1       -0.2040
      4 C          63.1372   82.2233   13.2759 C.ar    1  UNL1        0.0312
      5 C          62.5236   82.7874   12.0288 C.ar    1  UNL1        0.0204
      6 C          62.6778   84.2451   11.7103 C.ar    1  UNL1        0.0924
      7 C          63.4455   85.1387   12.6388 C.ar    1  UNL1        0.1598
      8 F          63.5996   86.5963   12.3203 F       1  UNL1       -0.2026
      9 C          64.8267   85.4680   14.8145 C.2     1  UNL1        0.2036
     10 O          66.3244   85.3967   14.8565 O.2     1  UNL1       -0.2863
     11 C          64.3091   90.3011   14.5165 C.2     1  UNL1        0.0974
     12 C          63.4849   90.8684   15.6340 C.2     1  UNL1        0.2421
     13 N          62.9221   89.9600   16.6867 N.2     1  UNL1       -0.0304
     14 C          63.1834   88.4844   16.6218 C.2     1  UNL1        0.3721
     15 N          62.7631   87.3506   17.5095 N.2     1  UNL1       -0.0307
     16 C          63.3276   86.0827   16.9405 C.2     1  UNL1        0.2390
     17 C          64.0967   86.4328   15.7012 C.2     1  UNL1        0.0896
     18 C          64.0075   87.9172   15.5042 C.2     1  UNL1        0.0782
     19 C          64.5704   88.8255   14.4516 C.3     1  UNL1        0.0751
     20 N          65.4348   92.1179   12.4112 N.1     1  UNL1       -0.1910
     21 C          64.8719   91.2095   13.4639 C.1     1  UNL1        0.1003
     22 N          62.0643   84.8093   10.4631 N.pl3   1  UNL1       -0.2127
     23 H          61.8381   84.2133    9.7128 H       1  UNL1        0.1738
     24 S          61.7953   86.2813   10.3592 S.O2    1  UNL1        0.0758
     25 O          60.9357   86.2109   11.5863 O.2     1  UNL1       -0.1499
     26 O          62.6550   86.3517    9.1320 O.2     1  UNL1       -0.1499
     27 C          61.5264   87.7534   10.2552 C.ar    1  UNL1        0.1524
     28 C          62.5126   88.7370   10.8119 C.ar    1  UNL1        0.0225
     29 C          62.2438   90.2090   10.7079 C.ar    1  UNL1        0.0015
     30 C          60.9887   90.6974   10.0473 C.ar    1  UNL1        0.0024
     31 C          60.0026   89.7138    9.4906 C.ar    1  UNL1        0.0310
     32 C          60.2714   88.2418    9.5946 C.ar    1  UNL1        0.1589
     33 F          59.2853   87.2581    9.0379 F       1  UNL1       -0.2027
@<TRIPOS>BOND
     1    20    21    3
     2    21    11    1
     3    11    12    2
     4    12    13    1
     5    13    14    2
     6    14    15    1
     7    15    16    2
     8    16    17    1
     9    17     9    1
    10     9    10    2
    11     9     1    1
    12     1     2   ar
    13     2     3    1
    14     2     4   ar
    15     4     5   ar
    16     5     6   ar
    17     6    22    1
    18    22    24    1
    19    24    25    2
    20    24    26    2
    21    24    27    1
    22    27    28   ar
    23    28    29   ar
    24    29    30   ar
    25    30    31   ar
    26    31    32   ar
    27    32    33    1
    28     6     7   ar
    29     7     8    1
    30    17    18    2
    31    18    19    1
    32    19    11    1
    33    18    14    1
    34     7     1   ar
    35    32    27   ar
    36    22    23    1
@<TRIPOS>MOLECULE
*****
 33 36 0 0 0
SMALL
GASTEIGER

@<TRIPOS>ATOM
      1 C          62.7795   88.2631   12.2643 C.ar    1  UNL1        0.0951
      2 C          63.5372   87.6399   13.3990 C.ar    1  UNL1        0.1454
      3 F          63.3677   86.1806   13.7020 F       1  UNL1       -0.2040
      4 C          64.4643   88.4758   14.2306 C.ar    1  UNL1        0.0312
      5 C          64.6337   89.9351   13.9276 C.ar    1  UNL1        0.0204
      6 C          63.8760   90.5583   12.7929 C.ar    1  UNL1        0.0924
      7 C          62.9489   89.7224   11.9612 C.ar    1  UNL1        0.1598
      8 F          62.1913   90.3457   10.8266 F       1  UNL1       -0.2026
      9 C          61.8524   87.4271   11.4327 C.2     1  UNL1        0.2036
     10 O          60.3677   87.5885   11.5727 O.2     1  UNL1       -0.2863
     11 C          63.0762   82.7501   12.0197 C.2     1  UNL1        0.0974
     12 C          63.6015   82.1236   10.7621 C.2     1  UNL1        0.2421
     13 N          63.7015   82.9354    9.5048 N.2     1  UNL1       -0.0304
     14 C          63.2763   84.3738    9.5050 C.2     1  UNL1        0.3721
     15 N          63.2600   85.4159    8.4262 N.2     1  UNL1       -0.0307
     16 C          62.7246   86.6865    9.0169 C.2     1  UNL1        0.2390
     17 C          62.4100   86.4297   10.4609 C.2     1  UNL1        0.0896
     18 C          62.7510   85.0004   10.7626 C.2     1  UNL1        0.0782
     19 C          62.6509   84.1885   12.0199 C.3     1  UNL1        0.0751
     20 N          62.8761   81.1264   14.5343 N.1     1  UNL1       -0.1910
     21 C          62.9762   81.9383   13.2770 C.1     1  UNL1        0.1003
     22 N          64.0454   92.0176   12.4898 N.pl3   1  UNL1       -0.2127
     23 H          63.4177   92.6750   12.8680 H       1  UNL1        0.1738
     24 S          65.1713   92.4753   11.6107 S.O2    1  UNL1        0.0758
     25 O          64.3438   92.1772   10.3957 O.2     1  UNL1       -0.1499
     26 O          65.9989   92.7733   12.8256 O.2     1  UNL1       -0.1499
     27 C          66.2973   92.9329   10.7315 C.ar    1  UNL1        0.1524
     28 C          67.4429   92.0101   10.4388 C.ar    1  UNL1        0.0225
     29 C          68.5688   92.4677    9.5596 C.ar    1  UNL1        0.0015
     30 C          68.5491   93.8481    8.9732 C.ar    1  UNL1        0.0024
     31 C          67.4034   94.7710    9.2659 C.ar    1  UNL1        0.0310
     32 C          66.2775   94.3134   10.1450 C.ar    1  UNL1        0.1589
     33 F          65.1318   95.2362   10.4378 F       1  UNL1       -0.2027
@<TRIPOS>BOND
     1    20    21    3
     2    21    11    1
     3    11    12    2
     4    12    13    1
     5    13    14    2
     6    14    15    1
     7    15    16    2
     8    16    17    1
     9    17     9    1
    10     9    10    2
    11     9     1    1
    12     1     2   ar
    13     2     3    1
    14     2     4   ar
    15     4     5   ar
    16     5     6   ar
    17     6    22    1
    18    22    24    1
    19    24    25    2
    20    24    26    2
    21    24    27    1
    22    27    28   ar
    23    28    29   ar
    24    29    30   ar
    25    30    31   ar
    26    31    32   ar
    27    32    33    1
    28     6     7   ar
    29     7     8    1
    30    17    18    2
    31    18    19    1
    32    19    11    1
    33    18    14    1
    34     7     1   ar
    35    32    27   ar
    36    22    23    1
@<TRIPOS>MOLECULE
*****
 33 36 0 0 0
SMALL
GASTEIGER

@<TRIPOS>ATOM
      1 C          63.9096   88.1688   15.4839 C.ar    1  UNL1        0.0951
      2 C          63.1126   88.5974   16.6801 C.ar    1  UNL1        0.1454
      3 F          62.8393   90.0532   16.9167 F       1  UNL1       -0.2040
      4 C          62.5889   87.5704   17.6397 C.ar    1  UNL1        0.0312
      5 C          62.8622   86.1146   17.4030 C.ar    1  UNL1        0.0204
      6 C          63.6593   85.6860   16.2067 C.ar    1  UNL1        0.0924
      7 C          64.1830   86.7130   15.2472 C.ar    1  UNL1        0.1598
      8 F          64.9800   86.2843   14.0510 F       1  UNL1       -0.2026
      9 C          64.4333   89.1959   14.5243 C.2     1  UNL1        0.2036
     10 O          65.6360   90.0161   14.8862 O.2     1  UNL1       -0.2863
     11 C          64.9317   92.7255   11.2061 C.2     1  UNL1        0.0974
     12 C          64.0420   92.5335   10.0139 C.2     1  UNL1        0.2421
     13 N          63.1284   91.3459    9.9433 N.2     1  UNL1       -0.0304
     14 C          63.1045   90.3503   11.0649 C.2     1  UNL1        0.3721
     15 N          62.3149   89.0922   11.2737 N.2     1  UNL1       -0.0307
     16 C          62.7165   88.5066   12.5950 C.2     1  UNL1        0.2390
     17 C          63.7544   89.4028   13.2028 C.2     1  UNL1        0.0896
     18 C          63.9942   90.5423   12.2572 C.2     1  UNL1        0.0782
     19 C          64.9078   91.7299   12.3278 C.3     1  UNL1        0.0751
     20 N          66.7589   95.1006   11.3473 N.1     1  UNL1       -0.1910
     21 C          65.8453   93.9131   11.2767 C.1     1  UNL1        0.1003
     22 N          63.9326   84.2302   15.9701 N.pl3   1  UNL1       -0.2127
     23 H          64.2015   83.6516   16.7199 H       1  UNL1        0.1738
     24 S          63.7962   83.6559   14.5911 S.O2    1  UNL1        0.0758
     25 O          65.2774   83.4255   14.5404 O.2     1  UNL1       -0.1499
     26 O          62.3148   83.8863   14.6417 O.2     1  UNL1       -0.1499
     27 C          63.6596   83.0816   13.2121 C.ar    1  UNL1        0.1524
     28 C          64.2219   83.8195   12.0334 C.ar    1  UNL1        0.0225
     29 C          64.0854   83.2453   10.6544 C.ar    1  UNL1        0.0015
     30 C          63.3867   81.9332   10.4541 C.ar    1  UNL1        0.0024
     31 C          62.8244   81.1953   11.6328 C.ar    1  UNL1        0.0310
     32 C          62.9609   81.7695   13.0118 C.ar    1  UNL1        0.1589
     33 F          62.3987   81.0317   14.1905 F       1  UNL1       -0.2027
@<TRIPOS>BOND
     1    20    21    3
     2    21    11    1
     3    11    12    2
     4    12    13    1
     5    13    14    2
     6    14    15    1
     7    15    16    2
     8    16    17    1
     9    17     9    1
    10     9    10    2
    11     9     1    1
    12     1     2   ar
    13     2     3    1
    14     2     4   ar
    15     4     5   ar
    16     5     6   ar
    17     6    22    1
    18    22    24    1
    19    24    25    2
    20    24    26    2
    21    24    27    1
    22    27    28   ar
    23    28    29   ar
    24    29    30   ar
    25    30    31   ar
    26    31    32   ar
    27    32    33    1
    28     6     7   ar
    29     7     8    1
    30    17    18    2
    31    18    19    1
    32    19    11    1
    33    18    14    1
    34     7     1   ar
    35    32    27   ar
    36    22    23    1
@<TRIPOS>MOLECULE
*****
 33 36 0 0 0
SMALL
GASTEIGER

@<TRIPOS>ATOM
      1 C          63.6903   88.7393   15.8072 C.ar    1  UNL1        0.0951
      2 C          63.2997   88.0971   17.1052 C.ar    1  UNL1        0.1454
      3 F          62.9860   88.9494   18.2991 F       1  UNL1       -0.2040
      4 C          63.2227   86.6028   17.2094 C.ar    1  UNL1        0.0312
      5 C          63.5364   85.7505   16.0156 C.ar    1  UNL1        0.0204
      6 C          63.9270   86.3928   14.7175 C.ar    1  UNL1        0.0924
      7 C          64.0040   87.8872   14.6133 C.ar    1  UNL1        0.1598
      8 F          64.3947   88.5293   13.3152 F       1  UNL1       -0.2026
      9 C          63.7673   90.2337   15.7030 C.2     1  UNL1        0.2036
     10 O          63.1306   91.0927   16.7550 O.2     1  UNL1       -0.2863
     11 C          62.4360   90.7805   11.0505 C.2     1  UNL1        0.0974
     12 C          63.4729   91.4857   10.2274 C.2     1  UNL1        0.2421
     13 N          64.7547   91.9373   10.8621 N.2     1  UNL1       -0.0304
     14 C          64.9998   91.6836   12.3200 C.2     1  UNL1        0.3721
     15 N          66.1586   92.0102   13.2148 N.2     1  UNL1       -0.0307
     16 C          65.8379   91.5068   14.5909 C.2     1  UNL1        0.2390
     17 C          64.4810   90.8691   14.5467 C.2     1  UNL1        0.0896
     18 C          63.9630   90.9784   13.1432 C.2     1  UNL1        0.0782
     19 C          62.6811   90.5269   12.5085 C.3     1  UNL1        0.0751
     20 N          59.8723   89.8774    9.7810 N.1     1  UNL1       -0.1910
     21 C          61.1542   90.3290   10.4158 C.1     1  UNL1        0.1003
     22 N          64.2407   85.5405   13.5236 N.pl3   1  UNL1       -0.2127
     23 H          64.8209   85.8891   12.8087 H       1  UNL1        0.1738
     24 S          63.6704   84.1571   13.4190 S.O2    1  UNL1        0.0758
     25 O          64.9635   83.5860   13.9204 O.2     1  UNL1       -0.1499
     26 O          62.3772   84.7282   12.9175 O.2     1  UNL1       -0.1499
     27 C          63.1000   82.7737   13.3143 C.ar    1  UNL1        0.1524
     28 C          62.1183   82.2878   14.3390 C.ar    1  UNL1        0.0225
     29 C          61.5479   80.9045   14.2345 C.ar    1  UNL1        0.0015
     30 C          61.9592   80.0070   13.1051 C.ar    1  UNL1        0.0024
     31 C          62.9409   80.4929   12.0804 C.ar    1  UNL1        0.0310
     32 C          63.5113   81.8762   12.1850 C.ar    1  UNL1        0.1589
     33 F          64.4931   82.3622   11.1603 F       1  UNL1       -0.2027
@<TRIPOS>BOND
     1    20    21    3
     2    21    11    1
     3    11    12    2
     4    12    13    1
     5    13    14    2
     6    14    15    1
     7    15    16    2
     8    16    17    1
     9    17     9    1
    10     9    10    2
    11     9     1    1
    12     1     2   ar
    13     2     3    1
    14     2     4   ar
    15     4     5   ar
    16     5     6   ar
    17     6    22    1
    18    22    24    1
    19    24    25    2
    20    24    26    2
    21    24    27    1
    22    27    28   ar
    23    28    29   ar
    24    29    30   ar
    25    30    31   ar
    26    31    32   ar
    27    32    33    1
    28     6     7   ar
    29     7     8    1
    30    17    18    2
    31    18    19    1
    32    19    11    1
    33    18    14    1
    34     7     1   ar
    35    32    27   ar
    36    22    23    1
@<TRIPOS>MOLECULE
*****
 33 36 0 0 0
SMALL
GASTEIGER

@<TRIPOS>ATOM
      1 C          61.6590   86.7111    9.2834 C.ar    1  UNL1        0.0951
      2 C          60.5017   86.5564    8.3418 C.ar    1  UNL1        0.1454
      3 F          60.1807   85.2104    7.7629 F       1  UNL1       -0.2040
      4 C          59.6655   87.7477    7.9792 C.ar    1  UNL1        0.0312
      5 C          59.9865   89.0937    8.5581 C.ar    1  UNL1        0.0204
      6 C          61.1439   89.2483    9.4998 C.ar    1  UNL1        0.0924
      7 C          61.9802   88.0571    9.8624 C.ar    1  UNL1        0.1598
      8 F          63.1375   88.2118   10.8040 F       1  UNL1       -0.2026
      9 C          62.4953   85.5198    9.6461 C.2     1  UNL1        0.2036
     10 O          63.2080   84.7495    8.5743 O.2     1  UNL1       -0.2863
     11 C          62.8431   81.0937   11.6472 C.2     1  UNL1        0.0974
     12 C          62.9498   81.1377   13.1428 C.2     1  UNL1        0.2421
     13 N          62.9414   82.4568   13.8568 N.2     1  UNL1       -0.0304
     14 C          62.8263   83.7319   13.0753 C.2     1  UNL1        0.3721
     15 N          62.7915   85.1700   13.5003 N.2     1  UNL1       -0.0307
     16 C          62.6632   86.0148   12.2675 C.2     1  UNL1        0.2390
     17 C          62.6188   85.0988   11.0805 C.2     1  UNL1        0.0896
     18 C          62.7196   83.6879   11.5798 C.2     1  UNL1        0.0782
     19 C          62.7280   82.3688   10.8657 C.3     1  UNL1        0.0751
     20 N          62.8599   78.4554   10.2192 N.1     1  UNL1       -0.1910
     21 C          62.8515   79.7745   10.9332 C.1     1  UNL1        0.1003
     22 N          61.4650   90.5944   10.0787 N.pl3   1  UNL1       -0.2127
     23 H          60.9816   91.3929    9.7657 H       1  UNL1        0.1738
     24 S          62.5225   90.7238   11.1346 S.O2    1  UNL1        0.0758
     25 O          61.5221   90.3391   12.1838 O.2     1  UNL1       -0.1499
     26 O          63.5231   91.1084   10.0853 O.2     1  UNL1       -0.1499
     27 C          63.5802   90.8532   12.1905 C.ar    1  UNL1        0.1524
     28 C          63.5838   89.9220   13.3664 C.ar    1  UNL1        0.0225
     29 C          64.6413   90.0513   14.4222 C.ar    1  UNL1        0.0015
     30 C          65.6952   91.1119   14.3022 C.ar    1  UNL1        0.0024
     31 C          65.6916   92.0432   13.1263 C.ar    1  UNL1        0.0310
     32 C          64.6341   91.9138   12.0704 C.ar    1  UNL1        0.1589
     33 F          64.6304   92.8450   10.8945 F       1  UNL1       -0.2027
@<TRIPOS>BOND
     1    20    21    3
     2    21    11    1
     3    11    12    2
     4    12    13    1
     5    13    14    2
     6    14    15    1
     7    15    16    2
     8    16    17    1
     9    17     9    1
    10     9    10    2
    11     9     1    1
    12     1     2   ar
    13     2     3    1
    14     2     4   ar
    15     4     5   ar
    16     5     6   ar
    17     6    22    1
    18    22    24    1
    19    24    25    2
    20    24    26    2
    21    24    27    1
    22    27    28   ar
    23    28    29   ar
    24    29    30   ar
    25    30    31   ar
    26    31    32   ar
    27    32    33    1
    28     6     7   ar
    29     7     8    1
    30    17    18    2
    31    18    19    1
    32    19    11    1
    33    18    14    1
    34     7     1   ar
    35    32    27   ar
    36    22    23    1
@<TRIPOS>MOLECULE
*****
 33 36 0 0 0
SMALL
GASTEIGER

@<TRIPOS>ATOM
      1 C          63.6065   90.7909   12.7711 C.ar    1  UNL1        0.0951
      2 C          63.5738   90.4713   14.2362 C.ar    1  UNL1        0.1454
      3 F          62.4059   89.7300   14.8162 F       1  UNL1       -0.2040
      4 C          64.7089   90.8932   15.1214 C.ar    1  UNL1        0.0312
      5 C          65.8768   91.6346   14.5415 C.ar    1  UNL1        0.0204
      6 C          65.9095   91.9541   13.0762 C.ar    1  UNL1        0.0924
      7 C          64.7744   91.5323   12.1910 C.ar    1  UNL1        0.1598
      8 F          64.8072   91.8519   10.7258 F       1  UNL1       -0.2026
      9 C          62.4714   90.3691   11.8859 C.2     1  UNL1        0.2036
     10 O          61.4877   91.3876   11.3910 O.2     1  UNL1       -0.2863
     11 C          60.1246   88.3127    8.1469 C.2     1  UNL1        0.0974
     12 C          60.2354   86.8168    8.1418 C.2     1  UNL1        0.2421
     13 N          61.0104   86.1185    9.2196 N.2     1  UNL1       -0.0304
     14 C          61.6747   86.9160   10.3024 C.2     1  UNL1        0.3721
     15 N          62.4993   86.5083   11.4873 N.2     1  UNL1       -0.0307
     16 C          62.8981   87.7522   12.2246 C.2     1  UNL1        0.2390
     17 C          62.3200   88.9287   11.4955 C.2     1  UNL1        0.0896
     18 C          61.5639   88.4119   10.3075 C.2     1  UNL1        0.0782
     19 C          60.7888   89.1102    9.2297 C.3     1  UNL1        0.0751
     20 N          58.5744   89.7093    5.9913 N.1     1  UNL1       -0.1910
     21 C          59.3495   89.0110    7.0691 C.1     1  UNL1        0.1003
     22 N          67.0774   92.6955   12.4962 N.pl3   1  UNL1       -0.2127
     23 H          67.9898   92.4996   12.8100 H       1  UNL1        0.1738
     24 S          66.8552   93.7353   11.4382 S.O2    1  UNL1        0.0758
     25 O          66.2544   94.6504   12.4637 O.2     1  UNL1       -0.1499
     26 O          67.4560   92.8203   10.4127 O.2     1  UNL1       -0.1499
     27 C          66.6330   94.7752   10.3801 C.ar    1  UNL1        0.1524
     28 C          65.4135   95.6471   10.4299 C.ar    1  UNL1        0.0225
     29 C          65.1912   96.6869    9.3719 C.ar    1  UNL1        0.0015
     30 C          66.1885   96.8548    8.2641 C.ar    1  UNL1        0.0024
     31 C          67.4081   95.9829    8.2143 C.ar    1  UNL1        0.0310
     32 C          67.6303   94.9431    9.2723 C.ar    1  UNL1        0.1589
     33 F          68.8498   94.0711    9.2226 F       1  UNL1       -0.2027
@<TRIPOS>BOND
     1    20    21    3
     2    21    11    1
     3    11    12    2
     4    12    13    1
     5    13    14    2
     6    14    15    1
     7    15    16    2
     8    16    17    1
     9    17     9    1
    10     9    10    2
    11     9     1    1
    12     1     2   ar
    13     2     3    1
    14     2     4   ar
    15     4     5   ar
    16     5     6   ar
    17     6    22    1
    18    22    24    1
    19    24    25    2
    20    24    26    2
    21    24    27    1
    22    27    28   ar
    23    28    29   ar
    24    29    30   ar
    25    30    31   ar
    26    31    32   ar
    27    32    33    1
    28     6     7   ar
    29     7     8    1
    30    17    18    2
    31    18    19    1
    32    19    11    1
    33    18    14    1
    34     7     1   ar
    35    32    27   ar
    36    22    23    1
@<TRIPOS>MOLECULE
*****
 33 36 0 0 0
SMALL
GASTEIGER

@<TRIPOS>ATOM
      1 C          63.5564   88.4162   15.8463 C.ar    1  UNL1        0.0951
      2 C          63.2239   87.7727   17.1598 C.ar    1  UNL1        0.1454
      3 F          62.8602   88.6231   18.3408 F       1  UNL1       -0.2040
      4 C          63.2550   86.2789   17.2924 C.ar    1  UNL1        0.0312
      5 C          63.6186   85.4285   16.1115 C.ar    1  UNL1        0.0204
      6 C          63.9512   86.0721   14.7979 C.ar    1  UNL1        0.0924
      7 C          63.9201   87.5659   14.6653 C.ar    1  UNL1        0.1598
      8 F          64.2526   88.2092   13.3518 F       1  UNL1       -0.2026
      9 C          63.5253   89.9100   15.7137 C.2     1  UNL1        0.2036
     10 O          63.2213   90.7629   16.9096 O.2     1  UNL1       -0.2863
     11 C          67.0396   92.9801   14.3209 C.2     1  UNL1        0.0974
     12 C          66.9299   93.3745   12.8778 C.2     1  UNL1        0.2421
     13 N          65.8178   92.8269   12.0331 N.2     1  UNL1       -0.0304
     14 C          64.8155   91.8850   12.6315 C.2     1  UNL1        0.3721
     15 N          63.6206   91.1890   12.0503 N.2     1  UNL1       -0.0307
     16 C          62.9918   90.3644   13.1342 C.2     1  UNL1        0.2390
     17 C          63.7981   90.5508   14.3852 C.2     1  UNL1        0.0896
     18 C          64.9252   91.4906   14.0745 C.2     1  UNL1        0.0782
     19 C          66.0373   92.0382   14.9192 C.3     1  UNL1        0.0751
     20 N          69.2637   94.0753   16.0103 N.1     1  UNL1       -0.1910
     21 C          68.1517   93.5277   15.1656 C.1     1  UNL1        0.1003
     22 N          64.3148   85.2217   13.6170 N.pl3   1  UNL1       -0.2127
     23 H          64.9518   85.5579   12.9458 H       1  UNL1        0.1738
     24 S          63.7081   83.8590   13.4587 S.O2    1  UNL1        0.0758
     25 O          62.4976   84.4722   12.8195 O.2     1  UNL1       -0.1499
     26 O          64.9185   83.2458   14.0980 O.2     1  UNL1       -0.1499
     27 C          63.1013   82.4963   13.3005 C.ar    1  UNL1        0.1524
     28 C          62.1274   81.9860   14.3208 C.ar    1  UNL1        0.0225
     29 C          61.5206   80.6233   14.1626 C.ar    1  UNL1        0.0015
     30 C          61.8878   79.7711   12.9841 C.ar    1  UNL1        0.0024
     31 C          62.8617   80.2814   11.9638 C.ar    1  UNL1        0.0310
     32 C          63.4684   81.6440   12.1220 C.ar    1  UNL1        0.1589
     33 F          64.4423   82.1545   11.1018 F       1  UNL1       -0.2027
@<TRIPOS>BOND
     1    20    21    3
     2    21    11    1
     3    11    12    2
     4    12    13    1
     5    13    14    2
     6    14    15    1
     7    15    16    2
     8    16    17    1
     9    17     9    1
    10     9    10    2
    11     9     1    1
    12     1     2   ar
    13     2     3    1
    14     2     4   ar
    15     4     5   ar
    16     5     6   ar
    17     6    22    1
    18    22    24    1
    19    24    25    2
    20    24    26    2
    21    24    27    1
    22    27    28   ar
    23    28    29   ar
    24    29    30   ar
    25    30    31   ar
    26    31    32   ar
    27    32    33    1
    28     6     7   ar
    29     7     8    1
    30    17    18    2
    31    18    19    1
    32    19    11    1
    33    18    14    1
    34     7     1   ar
    35    32    27   ar
    36    22    23    1
@<TRIPOS>MOLECULE
*****
 33 36 0 0 0
SMALL
GASTEIGER

@<TRIPOS>ATOM
      1 C          64.3575   90.9438   13.7268 C.ar    1  UNL1        0.0951
      2 C          64.3324   91.1969   15.2050 C.ar    1  UNL1        0.1454
      3 F          63.3337   90.4873   16.0705 F       1  UNL1       -0.2040
      4 C          65.3059   92.1596   15.8178 C.ar    1  UNL1        0.0312
      5 C          66.3046   92.8692   14.9523 C.ar    1  UNL1        0.0204
      6 C          66.3297   92.6161   13.4740 C.ar    1  UNL1        0.0924
      7 C          65.3562   91.6534   12.8612 C.ar    1  UNL1        0.1598
      8 F          65.3814   91.4004   11.3829 F       1  UNL1       -0.2026
      9 C          63.3841   89.9811   13.1140 C.2     1  UNL1        0.2036
     10 O          62.2510   90.4926   12.2746 O.2     1  UNL1       -0.2863
     11 C          61.8886   86.1730   10.4724 C.2     1  UNL1        0.0974
     12 C          62.2711   84.8563   11.0807 C.2     1  UNL1        0.2421
     13 N          63.0348   84.8200   12.3712 N.2     1  UNL1       -0.0304
     14 C          63.4158   86.1003   13.0535 C.2     1  UNL1        0.3721
     15 N          64.1626   86.3765   14.3248 N.2     1  UNL1       -0.0307
     16 C          64.2416   87.8639   14.5022 C.2     1  UNL1        0.2390
     17 C          63.5436   88.5070   13.3406 C.2     1  UNL1        0.0896
     18 C          63.0333   87.4169   12.4452 C.2     1  UNL1        0.0782
     19 C          62.2697   87.4533   11.1547 C.3     1  UNL1        0.0751
     20 N          60.3614   86.2457    7.8912 N.1     1  UNL1       -0.1910
     21 C          61.1250   86.2093    9.1818 C.1     1  UNL1        0.1003
     22 N          67.3284   93.3257   12.6085 N.pl3   1  UNL1       -0.2127
     23 H          68.2921   93.2147   12.7764 H       1  UNL1        0.1738
     24 S          66.8588   94.2045   11.4873 S.O2    1  UNL1        0.0758
     25 O          67.5196   93.2932   10.4961 O.2     1  UNL1       -0.1499
     26 O          66.1979   95.1160   12.4785 O.2     1  UNL1       -0.1499
     27 C          66.3891   95.0835   10.3661 C.ar    1  UNL1        0.1524
     28 C          65.1340   95.8902   10.5209 C.ar    1  UNL1        0.0225
     29 C          64.6643   96.7690    9.3998 C.ar    1  UNL1        0.0015
     30 C          65.4497   96.8412    8.1238 C.ar    1  UNL1        0.0024
     31 C          66.7048   96.0345    7.9690 C.ar    1  UNL1        0.0310
     32 C          67.1745   95.1556    9.0902 C.ar    1  UNL1        0.1589
     33 F          68.4295   94.3489    8.9354 F       1  UNL1       -0.2027
@<TRIPOS>BOND
     1    20    21    3
     2    21    11    1
     3    11    12    2
     4    12    13    1
     5    13    14    2
     6    14    15    1
     7    15    16    2
     8    16    17    1
     9    17     9    1
    10     9    10    2
    11     9     1    1
    12     1     2   ar
    13     2     3    1
    14     2     4   ar
    15     4     5   ar
    16     5     6   ar
    17     6    22    1
    18    22    24    1
    19    24    25    2
    20    24    26    2
    21    24    27    1
    22    27    28   ar
    23    28    29   ar
    24    29    30   ar
    25    30    31   ar
    26    31    32   ar
    27    32    33    1
    28     6     7   ar
    29     7     8    1
    30    17    18    2
    31    18    19    1
    32    19    11    1
    33    18    14    1
    34     7     1   ar
    35    32    27   ar
    36    22    23    1
