@<TRIPOS>MOLECULE
*****
 38 42 0 0 0
SMALL
GASTEIGER

@<TRIPOS>ATOM
      1 N          63.2343   89.8582   13.1153 N.3     1  UNL1       -0.2679
      2 C          64.0027   90.9596   12.4471 C.3     1  UNL1        0.0978
      3 C          63.8299   91.2106   10.9784 C.3     1  UNL1        0.0224
      4 C          64.5982   92.3120   10.3102 C.3     1  UNL1        0.0065
      5 C          65.5394   93.1625   11.1107 C.3     1  UNL1        0.0277
      6 C          65.7122   92.9116   12.5794 C.ar    1  UNL1       -0.0073
      7 C          66.6533   93.7621   13.3800 C.ar    1  UNL1       -0.0015
      8 C          66.8261   93.5112   14.8487 C.ar    1  UNL1        0.0203
      9 C          66.0578   92.4097   15.5169 C.ar    1  UNL1        0.0985
     10 N          65.1166   91.5592   14.7164 N.ar    1  UNL1       -0.2471
     11 C          64.9438   91.8101   13.2476 C.ar    1  UNL1        0.0695
     12 C          63.9085   88.9809   14.1280 C.3     1  UNL1        0.0725
     13 C          64.0256   87.5056   13.8829 C.3     1  UNL1        0.0188
     14 C          64.6290   86.6170   14.9299 C.3     1  UNL1        0.0185
     15 C          63.7421   85.8706   15.8819 C.3     1  UNL1        0.0686
     16 N          62.5955   85.0576   15.3581 N.3     1  UNL1       -0.2975
     17 H          61.8350   85.1532   16.0311 H       1  UNL1        0.1232
     18 C          62.7699   83.5890   15.1076 C.3     1  UNL1        0.0685
     19 F          63.2536   80.9855   10.0254 F       1  UNL1       -0.2043
     20 C          63.6371   82.1030   10.9496 C.3     1  UNL1        0.2639
     21 F          64.4635   82.4616    9.7502 F       1  UNL1       -0.2043
     22 C          64.3076   83.3450   11.4572 C.3     1  UNL1        0.0666
     23 C          64.0186   83.8404   12.8432 C.3     1  UNL1        0.0070
     24 C          63.0590   83.0937   13.7215 C.3     1  UNL1        0.0161
     25 C          62.3885   81.8516   13.2139 C.3     1  UNL1        0.0070
     26 C          62.6775   81.3563   11.8279 C.3     1  UNL1        0.0666
     27 C          61.7918   89.6341   12.7707 C.3     1  UNL1        0.0886
     28 C          61.4263   88.8671   11.5345 C.3     1  UNL1        0.0748
     29 C          62.3224   87.7707   11.0398 C.3     1  UNL1        0.0432
     30 C          61.9570   87.0037    9.8035 C.ar    1  UNL1       -0.0234
     31 C          62.8531   85.9072    9.3089 C.ar    1  UNL1       -0.0045
     32 C          62.4876   85.1403    8.0727 C.ar    1  UNL1       -0.0003
     33 C          61.2260   85.4698    7.3312 C.ar    1  UNL1       -0.0003
     34 C          60.3299   86.5662    7.8259 C.ar    1  UNL1       -0.0032
     35 C          60.6954   87.3332    9.0620 C.ar    1  UNL1       -0.0103
     36 C          59.7993   88.4297    9.5568 C.3     1  UNL1        0.0953
     37 N          60.1647   89.1966   10.7930 N.3     1  UNL1       -0.2934
     38 H          59.3958   89.0763   11.4522 H       1  UNL1        0.1236
@<TRIPOS>BOND
     1    19    20    1
     2    20    21    1
     3    20    22    1
     4    22    23    1
     5    23    24    1
     6    24    18    1
     7    18    16    1
     8    16    15    1
     9    15    14    1
    10    14    13    1
    11    13    12    1
    12    12     1    1
    13     1    27    1
    14    28    27    1
    15    28    29    1
    16    29    30    1
    17    30    31   ar
    18    31    32   ar
    19    32    33   ar
    20    33    34   ar
    21    34    35   ar
    22    35    36    1
    23    36    37    1
    24     2     1    1
    25     2     3    1
    26     3     4    1
    27     4     5    1
    28     5     6    1
    29     6     7   ar
    30     7     8   ar
    31     8     9   ar
    32     9    10   ar
    33    10    11   ar
    34    24    25    1
    35    25    26    1
    36    26    20    1
    37    37    28    1
    38    11     2    1
    39    35    30   ar
    40    11     6   ar
    41    16    17    1
    42    37    38    1
@<TRIPOS>MOLECULE
*****
 38 42 0 0 0
SMALL
GASTEIGER

@<TRIPOS>ATOM
      1 N          63.8110   90.0900   13.5977 N.3     1  UNL1       -0.2679
      2 C          64.7603   91.2184   13.8727 C.3     1  UNL1        0.0978
      3 C          65.2920   91.4301   15.2592 C.3     1  UNL1        0.0224
      4 C          66.2413   92.5585   15.5342 C.3     1  UNL1        0.0065
      5 C          66.6589   93.4751   14.4228 C.3     1  UNL1        0.0277
      6 C          66.1272   93.2633   13.0363 C.ar    1  UNL1       -0.0073
      7 C          66.5449   94.1799   11.9247 C.ar    1  UNL1       -0.0015
      8 C          66.0132   93.9681   10.5382 C.ar    1  UNL1        0.0203
      9 C          65.0639   92.8398   10.2632 C.ar    1  UNL1        0.0985
     10 N          64.6462   91.9232   11.3746 N.ar    1  UNL1       -0.2471
     11 C          65.1779   92.1349   12.7612 C.ar    1  UNL1        0.0695
     12 C          64.2754   88.6699   13.7302 C.3     1  UNL1        0.0725
     13 C          64.2060   87.9791   15.0598 C.3     1  UNL1        0.0188
     14 C          64.3947   86.4934   15.1438 C.3     1  UNL1        0.0185
     15 C          63.5639   85.6845   16.0955 C.3     1  UNL1        0.0686
     16 N          62.4847   84.7845   15.5706 N.3     1  UNL1       -0.2975
     17 H          61.7457   84.7701   16.2734 H       1  UNL1        0.1232
     18 C          62.7955   83.3549   15.2396 C.3     1  UNL1        0.0685
     19 F          63.2665   80.9876   10.0420 F       1  UNL1       -0.2043
     20 C          63.5196   82.1405   10.9676 C.3     1  UNL1        0.2639
     21 F          64.1426   82.6733    9.7114 F       1  UNL1       -0.2043
     22 C          63.9891   83.4785   11.4568 C.3     1  UNL1        0.0666
     23 C          63.7477   83.8833   12.8808 C.3     1  UNL1        0.0070
     24 C          63.0369   82.9501   13.8156 C.3     1  UNL1        0.0161
     25 C          62.5674   81.6121   13.3263 C.3     1  UNL1        0.0070
     26 C          62.8088   81.2073   11.9023 C.3     1  UNL1        0.0666
     27 C          62.3972   90.3817   13.1902 C.3     1  UNL1        0.0886
     28 C          61.8150   89.7207   11.9760 C.3     1  UNL1        0.0748
     29 C          62.3865   88.4254   11.4806 C.3     1  UNL1        0.0432
     30 C          61.8043   87.7644   10.2664 C.ar    1  UNL1       -0.0234
     31 C          62.3759   86.4691    9.7710 C.ar    1  UNL1       -0.0045
     32 C          61.7937   85.8081    8.5569 C.ar    1  UNL1       -0.0003
     33 C          60.6399   86.4424    7.8382 C.ar    1  UNL1       -0.0003
     34 C          60.0684   87.7377    8.3336 C.ar    1  UNL1       -0.0032
     35 C          60.6506   88.3987    9.5477 C.ar    1  UNL1       -0.0103
     36 C          60.0790   89.6941   10.0432 C.3     1  UNL1        0.0953
     37 N          60.6612   90.3550   11.2573 N.3     1  UNL1       -0.2934
     38 H          59.9047   90.4437   11.9356 H       1  UNL1        0.1236
@<TRIPOS>BOND
     1    19    20    1
     2    20    21    1
     3    20    22    1
     4    22    23    1
     5    23    24    1
     6    24    18    1
     7    18    16    1
     8    16    15    1
     9    15    14    1
    10    14    13    1
    11    13    12    1
    12    12     1    1
    13     1    27    1
    14    28    27    1
    15    28    29    1
    16    29    30    1
    17    30    31   ar
    18    31    32   ar
    19    32    33   ar
    20    33    34   ar
    21    34    35   ar
    22    35    36    1
    23    36    37    1
    24     2     1    1
    25     2     3    1
    26     3     4    1
    27     4     5    1
    28     5     6    1
    29     6     7   ar
    30     7     8   ar
    31     8     9   ar
    32     9    10   ar
    33    10    11   ar
    34    24    25    1
    35    25    26    1
    36    26    20    1
    37    37    28    1
    38    11     2    1
    39    35    30   ar
    40    11     6   ar
    41    16    17    1
    42    37    38    1
@<TRIPOS>MOLECULE
*****
 38 42 0 0 0
SMALL
GASTEIGER

@<TRIPOS>ATOM
      1 N          63.3442   88.8027   13.5929 N.3     1  UNL1       -0.2679
      2 C          62.9134   89.1613   12.2016 C.3     1  UNL1        0.0978
      3 C          63.0786   90.5667   11.7041 C.3     1  UNL1        0.0224
      4 C          62.6478   90.9253   10.3128 C.3     1  UNL1        0.0065
      5 C          62.0518   89.8785    9.4189 C.3     1  UNL1        0.0277
      6 C          61.8866   88.4731    9.9165 C.ar    1  UNL1       -0.0073
      7 C          61.2905   87.4262    9.0226 C.ar    1  UNL1       -0.0015
      8 C          61.1253   86.0209    9.5201 C.ar    1  UNL1        0.0203
      9 C          61.5561   85.6623   10.9115 C.ar    1  UNL1        0.0985
     10 N          62.1521   86.7090   11.8053 N.ar    1  UNL1       -0.2471
     11 C          62.3174   88.1145   11.3078 C.ar    1  UNL1        0.0695
     12 C          63.9761   87.4693   13.8622 C.3     1  UNL1        0.0725
     13 C          64.4190   87.1159   15.2511 C.3     1  UNL1        0.0188
     14 C          63.4057   86.9723   16.3477 C.3     1  UNL1        0.0185
     15 C          62.8263   85.6248   16.6616 C.3     1  UNL1        0.0686
     16 N          62.2039   84.8036   15.5716 N.3     1  UNL1       -0.2975
     17 H          61.2140   84.7127   15.8001 H       1  UNL1        0.1232
     18 C          62.7123   83.4206   15.2911 C.3     1  UNL1        0.0685
     19 F          63.2962   81.1446   10.0642 F       1  UNL1       -0.2043
     20 C          63.6750   82.1899   11.0711 C.3     1  UNL1        0.2639
     21 F          64.5454   82.6068    9.9228 F       1  UNL1       -0.2043
     22 C          64.3561   83.3800   11.6791 C.3     1  UNL1        0.0666
     23 C          64.0352   83.7902   13.0858 C.3     1  UNL1        0.0070
     24 C          63.0332   83.0104   13.8844 C.3     1  UNL1        0.0161
     25 C          62.3521   81.8203   13.2763 C.3     1  UNL1        0.0070
     26 C          62.6730   81.4100   11.8696 C.3     1  UNL1        0.0666
     27 C          63.1431   89.7776   14.7150 C.3     1  UNL1        0.0886
     28 C          64.2573   90.6974   15.1183 C.3     1  UNL1        0.0748
     29 C          65.5472   90.6936   14.3527 C.3     1  UNL1        0.0432
     30 C          66.6614   91.6134   14.7559 C.ar    1  UNL1       -0.0234
     31 C          67.9513   91.6096   13.9903 C.ar    1  UNL1       -0.0045
     32 C          69.0654   92.5294   14.3935 C.ar    1  UNL1       -0.0003
     33 C          68.8897   93.4529   15.5623 C.ar    1  UNL1       -0.0003
     34 C          67.5999   93.4567   16.3279 C.ar    1  UNL1       -0.0032
     35 C          66.4857   92.5370   15.9247 C.ar    1  UNL1       -0.0103
     36 C          65.1958   92.5407   16.6903 C.3     1  UNL1        0.0953
     37 N          64.0816   91.6209   16.2871 N.3     1  UNL1       -0.2934
     38 H          63.2749   92.2093   16.0788 H       1  UNL1        0.1236
@<TRIPOS>BOND
     1    19    20    1
     2    20    21    1
     3    20    22    1
     4    22    23    1
     5    23    24    1
     6    24    18    1
     7    18    16    1
     8    16    15    1
     9    15    14    1
    10    14    13    1
    11    13    12    1
    12    12     1    1
    13     1    27    1
    14    28    27    1
    15    28    29    1
    16    29    30    1
    17    30    31   ar
    18    31    32   ar
    19    32    33   ar
    20    33    34   ar
    21    34    35   ar
    22    35    36    1
    23    36    37    1
    24     2     1    1
    25     2     3    1
    26     3     4    1
    27     4     5    1
    28     5     6    1
    29     6     7   ar
    30     7     8   ar
    31     8     9   ar
    32     9    10   ar
    33    10    11   ar
    34    24    25    1
    35    25    26    1
    36    26    20    1
    37    37    28    1
    38    11     2    1
    39    35    30   ar
    40    11     6   ar
    41    16    17    1
    42    37    38    1
@<TRIPOS>MOLECULE
*****
 38 42 0 0 0
SMALL
GASTEIGER

@<TRIPOS>ATOM
      1 N          63.5658   89.6385   13.4576 N.3     1  UNL1       -0.2679
      2 C          64.1641   90.8072   12.7321 C.3     1  UNL1        0.0978
      3 C          63.7736   91.0878   11.3113 C.3     1  UNL1        0.0224
      4 C          64.3720   92.2564   10.5859 C.3     1  UNL1        0.0065
      5 C          65.3608   93.1445   11.2813 C.3     1  UNL1        0.0277
      6 C          65.7513   92.8638   12.7021 C.ar    1  UNL1       -0.0073
      7 C          66.7401   93.7519   13.3975 C.ar    1  UNL1       -0.0015
      8 C          67.1306   93.4713   14.8184 C.ar    1  UNL1        0.0203
      9 C          66.5323   92.3026   15.5438 C.ar    1  UNL1        0.0985
     10 N          65.5435   91.4146   14.8484 N.ar    1  UNL1       -0.2471
     11 C          65.1529   91.6952   13.4275 C.ar    1  UNL1        0.0695
     12 C          63.0706   89.8024   14.8639 C.3     1  UNL1        0.0725
     13 C          63.6947   89.0120   15.9757 C.3     1  UNL1        0.0188
     14 C          62.8256   88.2838   16.9577 C.3     1  UNL1        0.0185
     15 C          62.9111   86.7906   17.0715 C.3     1  UNL1        0.0686
     16 N          63.2884   85.9676   15.8755 N.3     1  UNL1       -0.2975
     17 H          62.9839   86.4874   15.0524 H       1  UNL1        0.1232
     18 C          62.7577   84.5725   15.7273 C.3     1  UNL1        0.0685
     19 F          63.5598   82.6969   10.3719 F       1  UNL1       -0.2043
     20 C          63.0555   82.4609   11.7647 C.3     1  UNL1        0.2639
     21 F          62.7032   81.1464   11.1338 F       1  UNL1       -0.2043
     22 C          62.4287   81.7683   12.9384 C.3     1  UNL1        0.0666
     23 C          62.3295   82.4721   14.2592 C.3     1  UNL1        0.0070
     24 C          62.8569   83.8686   14.4064 C.3     1  UNL1        0.0161
     25 C          63.4836   84.5612   13.2327 C.3     1  UNL1        0.0070
     26 C          63.5829   83.8573   11.9119 C.3     1  UNL1        0.0666
     27 C          63.4626   88.3060   12.7766 C.3     1  UNL1        0.0886
     28 C          62.3954   88.0692   11.7494 C.3     1  UNL1        0.0748
     29 C          62.6357   87.1036   10.6271 C.3     1  UNL1        0.0432
     30 C          61.5685   86.8669    9.5999 C.ar    1  UNL1       -0.0234
     31 C          61.8088   85.9013    8.4775 C.ar    1  UNL1       -0.0045
     32 C          60.7416   85.6646    7.4504 C.ar    1  UNL1       -0.0003
     33 C          59.4341   86.3935    7.5456 C.ar    1  UNL1       -0.0003
     34 C          59.1938   87.3591    8.6680 C.ar    1  UNL1       -0.0032
     35 C          60.2610   87.5958    9.6951 C.ar    1  UNL1       -0.0103
     36 C          60.0207   88.5614   10.8176 C.3     1  UNL1        0.0953
     37 N          61.0879   88.7981   11.8447 N.3     1  UNL1       -0.2934
     38 H          60.6832   88.5598   12.7501 H       1  UNL1        0.1236
@<TRIPOS>BOND
     1    19    20    1
     2    20    21    1
     3    20    22    1
     4    22    23    1
     5    23    24    1
     6    24    18    1
     7    18    16    1
     8    16    15    1
     9    15    14    1
    10    14    13    1
    11    13    12    1
    12    12     1    1
    13     1    27    1
    14    28    27    1
    15    28    29    1
    16    29    30    1
    17    30    31   ar
    18    31    32   ar
    19    32    33   ar
    20    33    34   ar
    21    34    35   ar
    22    35    36    1
    23    36    37    1
    24     2     1    1
    25     2     3    1
    26     3     4    1
    27     4     5    1
    28     5     6    1
    29     6     7   ar
    30     7     8   ar
    31     8     9   ar
    32     9    10   ar
    33    10    11   ar
    34    24    25    1
    35    25    26    1
    36    26    20    1
    37    37    28    1
    38    11     2    1
    39    35    30   ar
    40    11     6   ar
    41    16    17    1
    42    37    38    1
@<TRIPOS>MOLECULE
*****
 38 42 0 0 0
SMALL
GASTEIGER

@<TRIPOS>ATOM
      1 N          63.5384   88.8145   14.0952 N.3     1  UNL1       -0.2679
      2 C          63.3707   89.5098   12.7767 C.3     1  UNL1        0.0978
      3 C          64.0863   90.8016   12.5137 C.3     1  UNL1        0.0224
      4 C          63.9186   91.4969   11.1952 C.3     1  UNL1        0.0065
      5 C          63.0354   90.9004   10.1397 C.3     1  UNL1        0.0277
      6 C          62.3199   89.6086   10.4027 C.ar    1  UNL1       -0.0073
      7 C          61.4366   89.0120    9.3472 C.ar    1  UNL1       -0.0015
      8 C          60.7211   87.7202    9.6103 C.ar    1  UNL1        0.0203
      9 C          60.8888   87.0249   10.9288 C.ar    1  UNL1        0.0985
     10 N          61.7720   87.6214   11.9842 N.ar    1  UNL1       -0.2471
     11 C          62.4876   88.9133   11.7213 C.ar    1  UNL1        0.0695
     12 C          62.8238   89.3278   15.3100 C.3     1  UNL1        0.0725
     13 C          63.5348   90.2330   16.2719 C.3     1  UNL1        0.0188
     14 C          64.4007   91.3438   15.7561 C.3     1  UNL1        0.0185
     15 C          64.9978   92.3345   16.7111 C.3     1  UNL1        0.0686
     16 N          66.3536   92.9156   16.4386 N.3     1  UNL1       -0.2975
     17 H          66.2050   93.8741   16.1229 H       1  UNL1        0.1232
     18 C          67.2607   92.2653   15.4366 C.3     1  UNL1        0.0685
     19 F          66.2564   94.3089   10.1776 F       1  UNL1       -0.2043
     20 C          66.8787   93.2744   11.0678 C.3     1  UNL1        0.2639
     21 F          67.3059   92.7552    9.7270 F       1  UNL1       -0.2043
     22 C          67.6493   92.0596   11.4924 C.3     1  UNL1        0.0666
     23 C          67.7767   91.7232   12.9486 C.3     1  UNL1        0.0070
     24 C          67.1334   92.6017   13.9803 C.3     1  UNL1        0.0161
     25 C          66.3627   93.8165   13.5557 C.3     1  UNL1        0.0070
     26 C          66.2353   94.1529   12.0995 C.3     1  UNL1        0.0666
     27 C          64.4208   87.6059   14.1990 C.3     1  UNL1        0.0886
     28 C          63.8117   86.2377   14.2838 C.3     1  UNL1        0.0748
     29 C          63.7979   85.3468   13.0772 C.3     1  UNL1        0.0432
     30 C          63.1889   83.9785   13.1620 C.ar    1  UNL1       -0.0234
     31 C          63.1750   83.0876   11.9554 C.ar    1  UNL1       -0.0045
     32 C          62.5660   81.7195   12.0403 C.ar    1  UNL1       -0.0003
     33 C          61.9709   81.2423   13.3318 C.ar    1  UNL1       -0.0003
     34 C          61.9847   82.1332   14.5385 C.ar    1  UNL1       -0.0032
     35 C          62.5937   83.5013   14.4536 C.ar    1  UNL1       -0.0103
     36 C          62.6076   84.3923   15.6602 C.3     1  UNL1        0.0953
     37 N          63.2166   85.7605   15.5753 N.3     1  UNL1       -0.2934
     38 H          63.9600   85.7957   16.2729 H       1  UNL1        0.1236
@<TRIPOS>BOND
     1    19    20    1
     2    20    21    1
     3    20    22    1
     4    22    23    1
     5    23    24    1
     6    24    18    1
     7    18    16    1
     8    16    15    1
     9    15    14    1
    10    14    13    1
    11    13    12    1
    12    12     1    1
    13     1    27    1
    14    28    27    1
    15    28    29    1
    16    29    30    1
    17    30    31   ar
    18    31    32   ar
    19    32    33   ar
    20    33    34   ar
    21    34    35   ar
    22    35    36    1
    23    36    37    1
    24     2     1    1
    25     2     3    1
    26     3     4    1
    27     4     5    1
    28     5     6    1
    29     6     7   ar
    30     7     8   ar
    31     8     9   ar
    32     9    10   ar
    33    10    11   ar
    34    24    25    1
    35    25    26    1
    36    26    20    1
    37    37    28    1
    38    11     2    1
    39    35    30   ar
    40    11     6   ar
    41    16    17    1
    42    37    38    1
@<TRIPOS>MOLECULE
*****
 38 42 0 0 0
SMALL
GASTEIGER

@<TRIPOS>ATOM
      1 N          63.5276   90.4401   11.9517 N.3     1  UNL1       -0.2679
      2 C          64.4717   91.6034   11.8773 C.3     1  UNL1        0.0978
      3 C          64.7203   92.2848   10.5643 C.3     1  UNL1        0.0224
      4 C          65.6644   93.4481   10.4899 C.3     1  UNL1        0.0065
      5 C          66.3599   93.9299   11.7284 C.3     1  UNL1        0.0277
      6 C          66.1113   93.2485   13.0414 C.ar    1  UNL1       -0.0073
      7 C          66.8068   93.7304   14.2800 C.ar    1  UNL1       -0.0015
      8 C          66.5583   93.0490   15.5930 C.ar    1  UNL1        0.0203
      9 C          65.6142   91.8857   15.6674 C.ar    1  UNL1        0.0985
     10 N          64.9187   91.4039   14.4288 N.ar    1  UNL1       -0.2471
     11 C          65.1672   92.0853   13.1158 C.ar    1  UNL1        0.0695
     12 C          62.9166   89.8888   10.6977 C.3     1  UNL1        0.0725
     13 C          61.6004   90.4175   10.2094 C.3     1  UNL1        0.0188
     14 C          60.4534   90.5714   11.1637 C.3     1  UNL1        0.0185
     15 C          59.9636   89.3881   11.9446 C.3     1  UNL1        0.0686
     16 N          59.9140   88.0336   11.3018 N.3     1  UNL1       -0.2975
     17 H          60.8375   87.6172   11.4209 H       1  UNL1        0.1232
     18 C          59.5653   87.9055    9.8486 C.3     1  UNL1        0.0685
     19 F          61.6758   84.2068    6.0136 F       1  UNL1       -0.2043
     20 C          61.8737   85.0730    7.2221 C.3     1  UNL1        0.2639
     21 F          63.2505   84.4927    7.0892 F       1  UNL1       -0.2043
     22 C          62.5497   85.7377    8.3844 C.3     1  UNL1        0.0666
     23 C          61.7803   86.6818    9.2599 C.3     1  UNL1        0.0070
     24 C          60.3348   86.9613    8.9730 C.3     1  UNL1        0.0161
     25 C          59.6587   86.2966    7.8107 C.3     1  UNL1        0.0070
     26 C          60.4281   85.3525    6.9352 C.3     1  UNL1        0.0666
     27 C          63.1947   89.8283   13.2801 C.3     1  UNL1        0.0886
     28 C          63.5278   88.3905   13.5482 C.3     1  UNL1        0.0748
     29 C          63.0579   87.3232   12.6049 C.3     1  UNL1        0.0432
     30 C          63.3911   85.8854   12.8730 C.ar    1  UNL1       -0.0234
     31 C          62.9212   84.8181   11.9296 C.ar    1  UNL1       -0.0045
     32 C          63.2544   83.3804   12.1978 C.ar    1  UNL1       -0.0003
     33 C          64.0575   83.0100   13.4094 C.ar    1  UNL1       -0.0003
     34 C          64.5274   84.0773   14.3527 C.ar    1  UNL1       -0.0032
     35 C          64.1942   85.5150   14.0845 C.ar    1  UNL1       -0.0103
     36 C          64.6641   86.5824   15.0279 C.3     1  UNL1        0.0953
     37 N          64.3310   88.0201   14.7598 N.3     1  UNL1       -0.2934
     38 H          65.2175   88.5196   14.6894 H       1  UNL1        0.1236
@<TRIPOS>BOND
     1    19    20    1
     2    20    21    1
     3    20    22    1
     4    22    23    1
     5    23    24    1
     6    24    18    1
     7    18    16    1
     8    16    15    1
     9    15    14    1
    10    14    13    1
    11    13    12    1
    12    12     1    1
    13     1    27    1
    14    28    27    1
    15    28    29    1
    16    29    30    1
    17    30    31   ar
    18    31    32   ar
    19    32    33   ar
    20    33    34   ar
    21    34    35   ar
    22    35    36    1
    23    36    37    1
    24     2     1    1
    25     2     3    1
    26     3     4    1
    27     4     5    1
    28     5     6    1
    29     6     7   ar
    30     7     8   ar
    31     8     9   ar
    32     9    10   ar
    33    10    11   ar
    34    24    25    1
    35    25    26    1
    36    26    20    1
    37    37    28    1
    38    11     2    1
    39    35    30   ar
    40    11     6   ar
    41    16    17    1
    42    37    38    1
@<TRIPOS>MOLECULE
*****
 38 42 0 0 0
SMALL
GASTEIGER

@<TRIPOS>ATOM
      1 N          60.9319   87.4601   10.2312 N.3     1  UNL1       -0.2679
      2 C          61.8471   86.3225    9.8871 C.3     1  UNL1        0.0978
      3 C          62.2230   86.0685    8.4573 C.3     1  UNL1        0.0224
      4 C          63.1382   84.9310    8.1132 C.3     1  UNL1        0.0065
      5 C          63.6775   84.0475    9.1988 C.3     1  UNL1        0.0277
      6 C          63.3017   84.3015   10.6285 C.ar    1  UNL1       -0.0073
      7 C          63.8410   83.4180   11.7141 C.ar    1  UNL1       -0.0015
      8 C          63.4651   83.6720   13.1439 C.ar    1  UNL1        0.0203
      9 C          62.5499   84.8095   13.4880 C.ar    1  UNL1        0.0985
     10 N          62.0106   85.6930   12.4024 N.ar    1  UNL1       -0.2471
     11 C          62.3864   85.4390   10.9726 C.ar    1  UNL1        0.0695
     12 C          59.7778   87.7924    9.3326 C.3     1  UNL1        0.0725
     13 C          59.8977   88.9109    8.3403 C.3     1  UNL1        0.0188
     14 C          59.0196   88.9322    7.1244 C.3     1  UNL1        0.0185
     15 C          59.3840   89.7929    5.9512 C.3     1  UNL1        0.0686
     16 N          59.0238   91.2490    5.9486 N.3     1  UNL1       -0.2975
     17 H          58.1081   91.3266    6.3911 H       1  UNL1        0.1232
     18 C          58.9432   91.9994    4.6523 C.3     1  UNL1        0.0685
     19 F          64.0448   92.0425    2.0421 F       1  UNL1       -0.2043
     20 C          62.6313   92.5365    2.1305 C.3     1  UNL1        0.2639
     21 F          63.1012   93.3048    0.9310 F       1  UNL1       -0.2043
     22 C          61.3809   93.2973    1.8022 C.3     1  UNL1        0.0666
     23 C          60.1516   93.1183    2.6428 C.3     1  UNL1        0.0070
     24 C          60.1726   92.1784    3.8116 C.3     1  UNL1        0.0161
     25 C          61.4230   91.4176    4.1399 C.3     1  UNL1        0.0070
     26 C          62.6523   91.5966    3.2993 C.3     1  UNL1        0.0666
     27 C          61.1708   88.2652   11.4740 C.3     1  UNL1        0.0886
     28 C          62.1941   89.3620   11.4720 C.3     1  UNL1        0.0748
     29 C          63.0763   89.5669   12.6677 C.3     1  UNL1        0.0432
     30 C          64.0997   90.6636   12.6657 C.ar    1  UNL1       -0.0234
     31 C          64.9818   90.8685   13.8614 C.ar    1  UNL1       -0.0045
     32 C          66.0051   91.9652   13.8593 C.ar    1  UNL1       -0.0003
     33 C          66.1463   92.8570   12.6615 C.ar    1  UNL1       -0.0003
     34 C          65.2641   92.6521   11.4658 C.ar    1  UNL1       -0.0032
     35 C          64.2408   91.5554   11.4679 C.ar    1  UNL1       -0.0103
     36 C          63.3586   91.3505   10.2721 C.3     1  UNL1        0.0953
     37 N          62.3353   90.2538   10.2742 N.3     1  UNL1       -0.2934
     38 H          62.5496   89.6496    9.4808 H       1  UNL1        0.1236
@<TRIPOS>BOND
     1    19    20    1
     2    20    21    1
     3    20    22    1
     4    22    23    1
     5    23    24    1
     6    24    18    1
     7    18    16    1
     8    16    15    1
     9    15    14    1
    10    14    13    1
    11    13    12    1
    12    12     1    1
    13     1    27    1
    14    28    27    1
    15    28    29    1
    16    29    30    1
    17    30    31   ar
    18    31    32   ar
    19    32    33   ar
    20    33    34   ar
    21    34    35   ar
    22    35    36    1
    23    36    37    1
    24     2     1    1
    25     2     3    1
    26     3     4    1
    27     4     5    1
    28     5     6    1
    29     6     7   ar
    30     7     8   ar
    31     8     9   ar
    32     9    10   ar
    33    10    11   ar
    34    24    25    1
    35    25    26    1
    36    26    20    1
    37    37    28    1
    38    11     2    1
    39    35    30   ar
    40    11     6   ar
    41    16    17    1
    42    37    38    1
@<TRIPOS>MOLECULE
*****
 38 42 0 0 0
SMALL
GASTEIGER

@<TRIPOS>ATOM
      1 N          63.0500   84.7100   14.4512 N.3     1  UNL1       -0.2679
      2 C          62.6685   83.3402   13.9736 C.3     1  UNL1        0.0978
      3 C          61.8081   82.4598   14.8307 C.3     1  UNL1        0.0224
      4 C          61.4266   81.0900   14.3531 C.3     1  UNL1        0.0065
      5 C          61.9054   80.6007   13.0185 C.3     1  UNL1        0.0277
      6 C          62.7657   81.4811   12.1614 C.ar    1  UNL1       -0.0073
      7 C          63.2445   80.9918   10.8267 C.ar    1  UNL1       -0.0015
      8 C          64.1049   81.8722    9.9697 C.ar    1  UNL1        0.0203
      9 C          64.4864   83.2420   10.4473 C.ar    1  UNL1        0.0985
     10 N          64.0076   83.7314   11.7819 N.ar    1  UNL1       -0.2471
     11 C          63.1472   82.8509   12.6390 C.ar    1  UNL1        0.0695
     12 C          62.6018   85.1854   15.8014 C.3     1  UNL1        0.0725
     13 C          63.4464   86.1553   16.5736 C.3     1  UNL1        0.0188
     14 C          62.8007   87.2913   17.3100 C.3     1  UNL1        0.0185
     15 C          63.1784   88.7063   16.9860 C.3     1  UNL1        0.0686
     16 N          63.3048   89.1400   15.5555 N.3     1  UNL1       -0.2975
     17 H          64.1251   88.6673   15.1759 H       1  UNL1        0.1232
     18 C          63.4513   90.5953   15.2233 C.3     1  UNL1        0.0685
     19 F          68.3546   93.4458   16.0449 F       1  UNL1       -0.2043
     20 C          67.5266   92.5038   15.2220 C.3     1  UNL1        0.2639
     21 F          68.7798   92.5365   14.3985 F       1  UNL1       -0.2043
     22 C          67.1339   91.5732   14.1131 C.3     1  UNL1        0.0666
     23 C          65.7755   90.9370   14.1135 C.3     1  UNL1        0.0070
     24 C          64.8098   91.2315   15.2228 C.3     1  UNL1        0.0161
     25 C          65.2025   92.1621   16.3318 C.3     1  UNL1        0.0070
     26 C          66.5609   92.7983   16.3314 C.3     1  UNL1        0.0666
     27 C          63.8798   85.6044   13.5786 C.3     1  UNL1        0.0886
     28 C          63.2128   86.5886   12.6639 C.3     1  UNL1        0.0748
     29 C          62.2792   86.1048   11.5942 C.3     1  UNL1        0.0432
     30 C          61.6122   87.0890   10.6795 C.ar    1  UNL1       -0.0234
     31 C          60.6786   86.6052    9.6098 C.ar    1  UNL1       -0.0045
     32 C          60.0117   87.5894    8.6951 C.ar    1  UNL1       -0.0003
     33 C          60.2784   89.0573    8.8502 C.ar    1  UNL1       -0.0003
     34 C          61.2120   89.5411    9.9199 C.ar    1  UNL1       -0.0032
     35 C          61.8789   88.5570   10.8345 C.ar    1  UNL1       -0.0103
     36 C          62.8126   89.0407   11.9043 C.3     1  UNL1        0.0953
     37 N          63.4795   88.0566   12.8189 N.3     1  UNL1       -0.2934
     38 H          63.2070   88.3066   13.7695 H       1  UNL1        0.1236
@<TRIPOS>BOND
     1    19    20    1
     2    20    21    1
     3    20    22    1
     4    22    23    1
     5    23    24    1
     6    24    18    1
     7    18    16    1
     8    16    15    1
     9    15    14    1
    10    14    13    1
    11    13    12    1
    12    12     1    1
    13     1    27    1
    14    28    27    1
    15    28    29    1
    16    29    30    1
    17    30    31   ar
    18    31    32   ar
    19    32    33   ar
    20    33    34   ar
    21    34    35   ar
    22    35    36    1
    23    36    37    1
    24     2     1    1
    25     2     3    1
    26     3     4    1
    27     4     5    1
    28     5     6    1
    29     6     7   ar
    30     7     8   ar
    31     8     9   ar
    32     9    10   ar
    33    10    11   ar
    34    24    25    1
    35    25    26    1
    36    26    20    1
    37    37    28    1
    38    11     2    1
    39    35    30   ar
    40    11     6   ar
    41    16    17    1
    42    37    38    1
@<TRIPOS>MOLECULE
*****
 38 42 0 0 0
SMALL
GASTEIGER

@<TRIPOS>ATOM
      1 N          61.7431   87.3766   11.1667 N.3     1  UNL1       -0.2679
      2 C          60.9228   87.1389    9.9336 C.3     1  UNL1        0.0978
      3 C          59.5835   87.7978    9.7852 C.3     1  UNL1        0.0224
      4 C          58.7631   87.5601    8.5521 C.3     1  UNL1        0.0065
      5 C          59.2821   86.6636    7.4673 C.3     1  UNL1        0.0277
      6 C          60.6214   86.0047    7.6157 C.ar    1  UNL1       -0.0073
      7 C          61.1405   85.1081    6.5309 C.ar    1  UNL1       -0.0015
      8 C          62.4798   84.4492    6.6792 C.ar    1  UNL1        0.0203
      9 C          63.3002   84.6869    7.9123 C.ar    1  UNL1        0.0985
     10 N          62.7812   85.5834    8.9971 N.ar    1  UNL1       -0.2471
     11 C          61.4418   86.2424    8.8488 C.ar    1  UNL1        0.0695
     12 C          62.6854   86.3173   11.6563 C.3     1  UNL1        0.0725
     13 C          62.1552   85.1274   12.4002 C.3     1  UNL1        0.0188
     14 C          62.9982   83.8949   12.5419 C.3     1  UNL1        0.0185
     15 C          62.6233   82.8407   13.5409 C.3     1  UNL1        0.0686
     16 N          62.8773   83.0676   15.0018 N.3     1  UNL1       -0.2975
     17 H          62.0454   83.5221   15.3782 H       1  UNL1        0.1232
     18 C          64.0544   83.8878   15.4399 C.3     1  UNL1        0.0685
     19 F          63.9341   89.6114   15.6992 F       1  UNL1       -0.2043
     20 C          63.5501   88.2807   16.2751 C.3     1  UNL1        0.2639
     21 F          62.9084   89.1935   17.2777 F       1  UNL1       -0.2043
     22 C          62.9432   87.2670   17.1993 C.3     1  UNL1        0.0666
     23 C          63.1112   85.8027   16.9209 C.3     1  UNL1        0.0070
     24 C          63.8862   85.3521   15.7183 C.3     1  UNL1        0.0161
     25 C          64.4932   86.3658   14.7942 C.3     1  UNL1        0.0070
     26 C          64.3251   87.8301   15.0726 C.3     1  UNL1        0.0666
     27 C          61.6211   88.6736   11.9102 C.3     1  UNL1        0.0886
     28 C          62.5647   89.8009   11.6117 C.3     1  UNL1        0.0748
     29 C          63.5249   90.2734   12.6628 C.3     1  UNL1        0.0432
     30 C          64.4685   91.4007   12.3643 C.ar    1  UNL1       -0.0234
     31 C          65.4286   91.8732   13.4154 C.ar    1  UNL1       -0.0045
     32 C          66.3722   93.0004   13.1169 C.ar    1  UNL1       -0.0003
     33 C          66.3555   93.6550   11.7674 C.ar    1  UNL1       -0.0003
     34 C          65.3954   93.1825   10.7163 C.ar    1  UNL1       -0.0032
     35 C          64.4518   92.0553   11.0148 C.ar    1  UNL1       -0.0103
     36 C          63.4916   91.5827    9.9637 C.3     1  UNL1        0.0953
     37 N          62.5481   90.4555   10.2622 N.3     1  UNL1       -0.2934
     38 H          62.7378   89.7236    9.5776 H       1  UNL1        0.1236
@<TRIPOS>BOND
     1    19    20    1
     2    20    21    1
     3    20    22    1
     4    22    23    1
     5    23    24    1
     6    24    18    1
     7    18    16    1
     8    16    15    1
     9    15    14    1
    10    14    13    1
    11    13    12    1
    12    12     1    1
    13     1    27    1
    14    28    27    1
    15    28    29    1
    16    29    30    1
    17    30    31   ar
    18    31    32   ar
    19    32    33   ar
    20    33    34   ar
    21    34    35   ar
    22    35    36    1
    23    36    37    1
    24     2     1    1
    25     2     3    1
    26     3     4    1
    27     4     5    1
    28     5     6    1
    29     6     7   ar
    30     7     8   ar
    31     8     9   ar
    32     9    10   ar
    33    10    11   ar
    34    24    25    1
    35    25    26    1
    36    26    20    1
    37    37    28    1
    38    11     2    1
    39    35    30   ar
    40    11     6   ar
    41    16    17    1
    42    37    38    1
