@<TRIPOS>MOLECULE
*****
 26 28 0 0 0
SMALL
GASTEIGER

@<TRIPOS>ATOM
      1 C          66.1489   92.9978   13.1118 C.ar    1  UNL1        0.1724
      2 C          65.4706   91.7755   13.6556 C.ar    1  UNL1        0.0400
      3 C          64.5377   90.9858   12.7859 C.ar    1  UNL1        0.0032
      4 C          63.8594   89.7635   13.3297 C.ar    1  UNL1       -0.0001
      5 C          62.9266   88.9739   12.4600 C.ar    1  UNL1       -0.0016
      6 C          62.6722   89.4066   11.0465 C.ar    1  UNL1        0.0085
      7 C          63.3506   90.6289   10.5027 C.ar    1  UNL1       -0.0015
      8 C          64.2833   91.4185   11.3724 C.ar    1  UNL1        0.0030
      9 C          64.9618   92.6409   10.8286 C.ar    1  UNL1        0.0400
     10 C          65.8945   93.4305   11.6983 C.ar    1  UNL1        0.1724
     11 C          61.7394   88.6170   10.1768 C.3     1  UNL1        0.1578
     12 O          62.9021   88.1537    9.3502 O.3     1  UNL1       -0.3755
     13 H          63.7215   88.5352    9.7023 H       1  UNL1        0.2112
     14 C          60.5766   89.0803   11.0034 C.ar    1  UNL1        0.1627
     15 N          59.9931   90.4621   11.0080 N.ar    1  UNL1       -0.2055
     16 C          58.8489   90.4789   11.9780 C.ar    1  UNL1        0.2204
     17 N          58.7254   89.1075   12.5729 N.ar    1  UNL1       -0.1488
     18 N          59.7931   88.2430   11.9706 N.ar    1  UNL1       -0.2594
     19 H          59.9518   87.2930   12.1743 H       1  UNL1        0.1904
     20 C          60.8065   87.8273    9.3072 C.3     1  UNL1        0.0356
     21 C          60.8162   86.3285    9.3642 C.3     1  UNL1        0.0032
     22 C          59.8640   88.5366    8.3805 C.3     1  UNL1        0.0032
     23 C          67.4499   93.2775   15.3432 C.3     1  UNL1        0.2526
     24 O          67.0818   93.7874   13.9815 O.3     1  UNL1       -0.4684
     25 O          66.5730   94.6528   11.1544 O.3     1  UNL1       -0.4684
     26 C          67.1672   94.6307    9.7773 C.3     1  UNL1        0.2526
@<TRIPOS>BOND
     1    23    24    1
     2    24     1    1
     3     1     2   ar
     4     2     3   ar
     5     3     4   ar
     6     4     5   ar
     7     5     6   ar
     8     6    11    1
     9    11    12    1
    10    11    14    1
    11    14    15   ar
    12    15    16   ar
    13    16    17   ar
    14    17    18   ar
    15    11    20    1
    16    20    21    1
    17    20    22    1
    18     6     7   ar
    19     7     8   ar
    20     8     9   ar
    21     9    10   ar
    22    10    25    1
    23    25    26    1
    24    10     1   ar
    25     8     3   ar
    26    18    14   ar
    27    12    13    1
    28    18    19    1
@<TRIPOS>MOLECULE
*****
 26 28 0 0 0
SMALL
GASTEIGER

@<TRIPOS>ATOM
      1 C          63.8853   89.6735   13.1012 C.ar    1  UNL1        0.1724
      2 C          64.3344   88.7650   14.2071 C.ar    1  UNL1        0.0400
      3 C          63.9917   87.3052   14.1644 C.ar    1  UNL1        0.0032
      4 C          64.4408   86.3967   15.2702 C.ar    1  UNL1       -0.0001
      5 C          64.0981   84.9371   15.2275 C.ar    1  UNL1       -0.0016
      6 C          63.3062   84.3859   14.0789 C.ar    1  UNL1        0.0085
      7 C          62.8571   85.2944   12.9731 C.ar    1  UNL1       -0.0015
      8 C          63.1998   86.7541   13.0158 C.ar    1  UNL1        0.0030
      9 C          62.7507   87.6626   11.9100 C.ar    1  UNL1        0.0400
     10 C          63.0934   89.1223   11.9527 C.ar    1  UNL1        0.1724
     11 C          62.9635   82.9262   14.0362 C.3     1  UNL1        0.1578
     12 O          62.4449   83.0068   15.4414 O.3     1  UNL1       -0.3755
     13 H          62.5421   83.9141   15.7703 H       1  UNL1        0.2112
     14 C          63.4820   82.8456   12.6310 C.ar    1  UNL1        0.1627
     15 N          62.6789   82.4951   11.4136 N.ar    1  UNL1       -0.2055
     16 C          63.5953   82.5342   10.2266 C.ar    1  UNL1        0.2204
     17 N          64.9649   82.9088   10.7106 N.ar    1  UNL1       -0.1488
     18 N          64.8949   83.1012   12.1965 N.ar    1  UNL1       -0.2594
     19 H          65.6445   83.3514   12.7836 H       1  UNL1        0.1904
     20 C          62.6208   81.4665   13.9935 C.3     1  UNL1        0.0356
     21 C          61.1912   81.0279   14.1120 C.3     1  UNL1        0.0032
     22 C          63.7077   80.4453   13.8322 C.3     1  UNL1        0.0032
     23 C          65.5419   91.5788   13.7141 C.3     1  UNL1        0.2526
     24 O          64.2280   91.1332   13.1439 O.3     1  UNL1       -0.4684
     25 O          62.6443   90.0309   10.8468 O.3     1  UNL1       -0.4684
     26 C          61.3744   89.7376   10.1043 C.3     1  UNL1        0.2526
@<TRIPOS>BOND
     1    23    24    1
     2    24     1    1
     3     1     2   ar
     4     2     3   ar
     5     3     4   ar
     6     4     5   ar
     7     5     6   ar
     8     6    11    1
     9    11    12    1
    10    11    14    1
    11    14    15   ar
    12    15    16   ar
    13    16    17   ar
    14    17    18   ar
    15    11    20    1
    16    20    21    1
    17    20    22    1
    18     6     7   ar
    19     7     8   ar
    20     8     9   ar
    21     9    10   ar
    22    10    25    1
    23    25    26    1
    24    10     1   ar
    25     8     3   ar
    26    18    14   ar
    27    12    13    1
    28    18    19    1
@<TRIPOS>MOLECULE
*****
 26 28 0 0 0
SMALL
GASTEIGER

@<TRIPOS>ATOM
      1 C          62.3698   89.5294   10.7894 C.ar    1  UNL1        0.1724
      2 C          63.1476   89.0229   11.9677 C.ar    1  UNL1        0.0400
      3 C          63.0481   87.5807   12.3683 C.ar    1  UNL1        0.0032
      4 C          63.8258   87.0743   13.5466 C.ar    1  UNL1       -0.0001
      5 C          63.7263   85.6322   13.9471 C.ar    1  UNL1       -0.0016
      6 C          62.8490   84.6966   13.1693 C.ar    1  UNL1        0.0085
      7 C          62.0713   85.2031   11.9910 C.ar    1  UNL1       -0.0015
      8 C          62.1708   86.6451   11.5905 C.ar    1  UNL1        0.0030
      9 C          61.3930   87.1517   10.4121 C.ar    1  UNL1        0.0400
     10 C          61.4926   88.5938   10.0115 C.ar    1  UNL1        0.1724
     11 C          62.7495   83.2544   13.5699 C.3     1  UNL1        0.1578
     12 O          62.1505   83.6606   14.8837 O.3     1  UNL1       -0.3755
     13 H          62.0821   84.6274   14.9227 H       1  UNL1        0.2112
     14 C          63.3485   82.8482   12.2560 C.ar    1  UNL1        0.1627
     15 N          62.7110   81.9523   11.2357 N.ar    1  UNL1       -0.2055
     16 C          63.6587   81.8170   10.0809 C.ar    1  UNL1        0.2204
     17 N          64.8820   82.6293   10.3875 N.ar    1  UNL1       -0.1488
     18 N          64.6903   83.2666   11.7318 N.ar    1  UNL1       -0.2594
     19 H          65.3323   83.8560   12.1896 H       1  UNL1        0.1904
     20 C          62.6500   81.8123   13.9704 C.3     1  UNL1        0.0356
     21 C          63.8926   80.9816   14.0967 C.3     1  UNL1        0.0032
     22 C          61.3080   81.2009   14.2445 C.3     1  UNL1        0.0032
     23 C          63.7902   91.6792   10.4560 C.3     1  UNL1        0.2526
     24 O          62.4693   90.9715   10.3888 O.3     1  UNL1       -0.4684
     25 O          60.7148   89.1003    8.8331 O.3     1  UNL1       -0.4684
     26 C          59.7446   88.1974    8.1307 C.3     1  UNL1        0.2526
@<TRIPOS>BOND
     1    23    24    1
     2    24     1    1
     3     1     2   ar
     4     2     3   ar
     5     3     4   ar
     6     4     5   ar
     7     5     6   ar
     8     6    11    1
     9    11    12    1
    10    11    14    1
    11    14    15   ar
    12    15    16   ar
    13    16    17   ar
    14    17    18   ar
    15    11    20    1
    16    20    21    1
    17    20    22    1
    18     6     7   ar
    19     7     8   ar
    20     8     9   ar
    21     9    10   ar
    22    10    25    1
    23    25    26    1
    24    10     1   ar
    25     8     3   ar
    26    18    14   ar
    27    12    13    1
    28    18    19    1
@<TRIPOS>MOLECULE
*****
 26 28 0 0 0
SMALL
GASTEIGER

@<TRIPOS>ATOM
      1 C          63.8265   90.1527   12.8002 C.ar    1  UNL1        0.1724
      2 C          63.1144   89.1614   11.9284 C.ar    1  UNL1        0.0400
      3 C          63.0347   87.7213   12.3406 C.ar    1  UNL1        0.0032
      4 C          62.3226   86.7299   11.4688 C.ar    1  UNL1       -0.0001
      5 C          62.2429   85.2899   11.8810 C.ar    1  UNL1       -0.0016
      6 C          62.8752   84.8413   13.1652 C.ar    1  UNL1        0.0085
      7 C          63.5873   85.8327   14.0370 C.ar    1  UNL1       -0.0015
      8 C          63.6670   87.2726   13.6247 C.ar    1  UNL1        0.0030
      9 C          64.3791   88.2641   14.4966 C.ar    1  UNL1        0.0400
     10 C          64.4588   89.7041   14.0843 C.ar    1  UNL1        0.1724
     11 C          62.7955   83.4012   13.5774 C.3     1  UNL1        0.1578
     12 O          62.1943   83.8100   14.8894 O.3     1  UNL1       -0.3755
     13 H          62.1134   84.7761   14.9209 H       1  UNL1        0.2112
     14 C          63.3966   82.9924   12.2654 C.ar    1  UNL1        0.1627
     15 N          62.7641   82.0881   11.2494 N.ar    1  UNL1       -0.2055
     16 C          63.7125   81.9529   10.0950 C.ar    1  UNL1        0.2204
     17 N          64.9311   82.7736   10.3976 N.ar    1  UNL1       -0.1488
     18 N          64.7359   83.4160   11.7390 N.ar    1  UNL1       -0.2594
     19 H          65.3746   84.0112   12.1940 H       1  UNL1        0.1904
     20 C          62.7157   81.9612   13.9896 C.3     1  UNL1        0.0356
     21 C          63.9697   81.1493   14.1251 C.3     1  UNL1        0.0032
     22 C          61.3819   81.3330   14.2663 C.3     1  UNL1        0.0032
     23 C          64.6939   91.9824   11.1723 C.3     1  UNL1        0.2526
     24 O          63.9062   91.5928   12.3879 O.3     1  UNL1       -0.4684
     25 O          65.1708   90.6956   14.9561 O.3     1  UNL1       -0.4684
     26 C          66.4703   91.2938   14.5049 C.3     1  UNL1        0.2526
@<TRIPOS>BOND
     1    23    24    1
     2    24     1    1
     3     1     2   ar
     4     2     3   ar
     5     3     4   ar
     6     4     5   ar
     7     5     6   ar
     8     6    11    1
     9    11    12    1
    10    11    14    1
    11    14    15   ar
    12    15    16   ar
    13    16    17   ar
    14    17    18   ar
    15    11    20    1
    16    20    21    1
    17    20    22    1
    18     6     7   ar
    19     7     8   ar
    20     8     9   ar
    21     9    10   ar
    22    10    25    1
    23    25    26    1
    24    10     1   ar
    25     8     3   ar
    26    18    14   ar
    27    12    13    1
    28    18    19    1
@<TRIPOS>MOLECULE
*****
 26 28 0 0 0
SMALL
GASTEIGER

@<TRIPOS>ATOM
      1 C          63.9443   89.5866   13.8307 C.ar    1  UNL1        0.1724
      2 C          64.9113   90.6640   14.2230 C.ar    1  UNL1        0.0400
      3 C          65.2097   91.7862   13.2734 C.ar    1  UNL1        0.0032
      4 C          66.1767   92.8636   13.6657 C.ar    1  UNL1       -0.0001
      5 C          66.4751   93.9857   12.7161 C.ar    1  UNL1       -0.0016
      6 C          65.8064   94.0304   11.3741 C.ar    1  UNL1        0.0085
      7 C          64.8394   92.9530   10.9818 C.ar    1  UNL1       -0.0015
      8 C          64.5410   91.8308   11.9314 C.ar    1  UNL1        0.0030
      9 C          63.5740   90.7533   11.5391 C.ar    1  UNL1        0.0400
     10 C          63.2756   89.6312   12.4887 C.ar    1  UNL1        0.1724
     11 C          66.1048   95.1526   10.4245 C.3     1  UNL1        0.1578
     12 O          65.1470   96.0361   11.1675 O.3     1  UNL1       -0.3755
     13 H          64.7586   95.5424   11.9066 H       1  UNL1        0.2112
     14 C          67.0625   94.2691    9.6815 C.ar    1  UNL1        0.1627
     15 N          68.0753   93.3509   10.2989 N.ar    1  UNL1       -0.2055
     16 C          68.8145   92.6629    9.1896 C.ar    1  UNL1        0.2204
     17 N          68.2584   93.1560    7.8865 N.ar    1  UNL1       -0.1488
     18 N          67.1757   94.1486    8.1906 N.ar    1  UNL1       -0.2594
     19 H          66.6344   94.6356    7.5279 H       1  UNL1        0.1904
     20 C          66.4032   96.2747    9.4749 C.3     1  UNL1        0.0356
     21 C          67.7849   96.8549    9.4100 C.3     1  UNL1        0.0032
     22 C          65.3198   96.8166    8.5901 C.3     1  UNL1        0.0032
     23 C          64.4346   87.1906   14.7076 C.3     1  UNL1        0.2526
     24 O          63.6459   88.4644   14.7803 O.3     1  UNL1       -0.4684
     25 O          62.3086   88.5537   12.0964 O.3     1  UNL1       -0.4684
     26 C          62.3806   87.9432   10.7281 C.3     1  UNL1        0.2526
@<TRIPOS>BOND
     1    23    24    1
     2    24     1    1
     3     1     2   ar
     4     2     3   ar
     5     3     4   ar
     6     4     5   ar
     7     5     6   ar
     8     6    11    1
     9    11    12    1
    10    11    14    1
    11    14    15   ar
    12    15    16   ar
    13    16    17   ar
    14    17    18   ar
    15    11    20    1
    16    20    21    1
    17    20    22    1
    18     6     7   ar
    19     7     8   ar
    20     8     9   ar
    21     9    10   ar
    22    10    25    1
    23    25    26    1
    24    10     1   ar
    25     8     3   ar
    26    18    14   ar
    27    12    13    1
    28    18    19    1
@<TRIPOS>MOLECULE
*****
 26 28 0 0 0
SMALL
GASTEIGER

@<TRIPOS>ATOM
      1 C          61.7709   88.0020   11.2841 C.ar    1  UNL1        0.1724
      2 C          62.6275   88.6039   12.3582 C.ar    1  UNL1        0.0400
      3 C          63.3909   89.8668   12.0890 C.ar    1  UNL1        0.0032
      4 C          64.2475   90.4688   13.1632 C.ar    1  UNL1       -0.0001
      5 C          65.0109   91.7316   12.8940 C.ar    1  UNL1       -0.0016
      6 C          64.9176   92.3925   11.5506 C.ar    1  UNL1        0.0085
      7 C          64.0610   91.7905   10.4765 C.ar    1  UNL1       -0.0015
      8 C          63.2977   90.5277   10.7457 C.ar    1  UNL1        0.0030
      9 C          62.4410   89.9256    9.6715 C.ar    1  UNL1        0.0400
     10 C          61.6776   88.6628    9.9407 C.ar    1  UNL1        0.1724
     11 C          65.6810   93.6554   11.2814 C.3     1  UNL1        0.1578
     12 O          64.8665   93.8838   10.0428 O.3     1  UNL1       -0.3755
     13 H          64.2255   93.1631    9.9399 H       1  UNL1        0.2112
     14 C          66.4956   93.4269   12.5201 C.ar    1  UNL1        0.1627
     15 N          66.2507   94.0480   13.8634 N.ar    1  UNL1       -0.2055
     16 C          67.3019   93.5422   14.8065 C.ar    1  UNL1        0.2204
     17 N          68.1964   92.6085   14.0460 N.ar    1  UNL1       -0.1488
     18 N          67.6981   92.5372   12.6330 N.ar    1  UNL1       -0.2594
     19 H          68.0912   92.0008   11.9071 H       1  UNL1        0.1904
     20 C          66.4444   94.9182   11.0123 C.3     1  UNL1        0.0356
     21 C          67.5452   94.9264    9.9934 C.3     1  UNL1        0.0032
     22 C          66.1071   96.1728   11.7621 C.3     1  UNL1        0.0032
     23 C          61.6793   85.4077   11.3918 C.3     1  UNL1        0.2526
     24 O          61.0074   86.7391   11.5532 O.3     1  UNL1       -0.4684
     25 O          60.8210   88.0608    8.8665 O.3     1  UNL1       -0.4684
     26 C          59.8306   88.9140    8.1309 C.3     1  UNL1        0.2526
@<TRIPOS>BOND
     1    23    24    1
     2    24     1    1
     3     1     2   ar
     4     2     3   ar
     5     3     4   ar
     6     4     5   ar
     7     5     6   ar
     8     6    11    1
     9    11    12    1
    10    11    14    1
    11    14    15   ar
    12    15    16   ar
    13    16    17   ar
    14    17    18   ar
    15    11    20    1
    16    20    21    1
    17    20    22    1
    18     6     7   ar
    19     7     8   ar
    20     8     9   ar
    21     9    10   ar
    22    10    25    1
    23    25    26    1
    24    10     1   ar
    25     8     3   ar
    26    18    14   ar
    27    12    13    1
    28    18    19    1
@<TRIPOS>MOLECULE
*****
 26 28 0 0 0
SMALL
GASTEIGER

@<TRIPOS>ATOM
      1 C          61.4139   87.7336    9.7441 C.ar    1  UNL1        0.1724
      2 C          61.7939   89.1846    9.7517 C.ar    1  UNL1        0.0400
      3 C          62.6495   89.7300   10.8565 C.ar    1  UNL1        0.0032
      4 C          63.0296   91.1810   10.8640 C.ar    1  UNL1       -0.0001
      5 C          63.8851   91.7264   11.9688 C.ar    1  UNL1       -0.0016
      6 C          64.3606   90.8208   13.0660 C.ar    1  UNL1        0.0085
      7 C          63.9806   89.3699   13.0584 C.ar    1  UNL1       -0.0015
      8 C          63.1250   88.8244   11.9536 C.ar    1  UNL1        0.0030
      9 C          62.7449   87.3734   11.9460 C.ar    1  UNL1        0.0400
     10 C          61.8893   86.8280   10.8413 C.ar    1  UNL1        0.1724
     11 C          65.2162   91.3663   14.1707 C.3     1  UNL1        0.1578
     12 O          64.5806   90.4096   15.1354 O.3     1  UNL1       -0.3755
     13 H          63.9219   89.8708   14.6698 H       1  UNL1        0.2112
     14 C          65.8518   92.3230   13.2061 C.ar    1  UNL1        0.1627
     15 N          65.7445   93.8186   13.2476 N.ar    1  UNL1       -0.2055
     16 C          66.5328   94.3721   12.0976 C.ar    1  UNL1        0.2204
     17 N          67.1273   93.2185   11.3453 N.ar    1  UNL1       -0.1488
     18 N          66.7065   91.9521   12.0304 N.ar    1  UNL1       -0.2594
     19 H          66.9486   91.0381   11.7564 H       1  UNL1        0.1904
     20 C          66.0718   91.9118   15.2754 C.3     1  UNL1        0.0356
     21 C          65.4333   92.5532   16.4716 C.3     1  UNL1        0.0032
     22 C          67.5660   91.8159   15.1840 C.3     1  UNL1        0.0032
     23 C          59.5184   88.0576    7.9969 C.3     1  UNL1        0.2526
     24 O          60.5583   87.1881    8.6393 O.3     1  UNL1       -0.4684
     25 O          61.5092   85.3769   10.8337 O.3     1  UNL1       -0.4684
     26 C          62.4230   84.3590   11.4493 C.3     1  UNL1        0.2526
@<TRIPOS>BOND
     1    23    24    1
     2    24     1    1
     3     1     2   ar
     4     2     3   ar
     5     3     4   ar
     6     4     5   ar
     7     5     6   ar
     8     6    11    1
     9    11    12    1
    10    11    14    1
    11    14    15   ar
    12    15    16   ar
    13    16    17   ar
    14    17    18   ar
    15    11    20    1
    16    20    21    1
    17    20    22    1
    18     6     7   ar
    19     7     8   ar
    20     8     9   ar
    21     9    10   ar
    22    10    25    1
    23    25    26    1
    24    10     1   ar
    25     8     3   ar
    26    18    14   ar
    27    12    13    1
    28    18    19    1
@<TRIPOS>MOLECULE
*****
 26 28 0 0 0
SMALL
GASTEIGER

@<TRIPOS>ATOM
      1 C          61.4690   85.2893    7.2304 C.ar    1  UNL1        0.1724
      2 C          62.5669   84.5143    7.8967 C.ar    1  UNL1        0.0400
      3 C          62.7645   84.6180    9.3801 C.ar    1  UNL1        0.0032
      4 C          63.8623   83.8430   10.0464 C.ar    1  UNL1       -0.0001
      5 C          64.0599   83.9467   11.5297 C.ar    1  UNL1       -0.0016
      6 C          63.1597   84.8254   12.3467 C.ar    1  UNL1        0.0085
      7 C          62.0618   85.6004   11.6803 C.ar    1  UNL1       -0.0015
      8 C          61.8642   85.4967   10.1970 C.ar    1  UNL1        0.0030
      9 C          60.7663   86.2717    9.5306 C.ar    1  UNL1        0.0400
     10 C          60.5687   86.1680    8.0474 C.ar    1  UNL1        0.1724
     11 C          63.3573   84.9291   13.8300 C.3     1  UNL1        0.1578
     12 O          63.6006   86.4030   13.6946 O.3     1  UNL1       -0.3755
     13 H          63.5325   86.6575   12.7611 H       1  UNL1        0.2112
     14 C          63.1140   83.4552   13.9654 C.ar    1  UNL1        0.1627
     15 N          61.8154   82.7489   13.7109 N.ar    1  UNL1       -0.2055
     16 C          62.0255   81.2858   13.9673 C.ar    1  UNL1        0.2204
     17 N          63.4539   81.0880   14.3802 N.ar    1  UNL1       -0.1488
     18 N          64.1267   82.4287   14.3790 N.ar    1  UNL1       -0.2594
     19 H          65.0676   82.6042   14.6093 H       1  UNL1        0.1904
     20 C          63.5549   85.0327   15.3133 C.3     1  UNL1        0.0356
     21 C          64.8992   85.4023   15.8668 C.3     1  UNL1        0.0032
     22 C          62.4083   84.7668   16.2431 C.3     1  UNL1        0.0032
     23 C          62.0146   84.1456    4.9623 C.3     1  UNL1        0.2526
     24 O          61.2714   85.1857    5.7471 O.3     1  UNL1       -0.4684
     25 O          59.4708   86.9431    7.3809 O.3     1  UNL1       -0.4684
     26 C          59.3641   88.4244    7.5914 C.3     1  UNL1        0.2526
@<TRIPOS>BOND
     1    23    24    1
     2    24     1    1
     3     1     2   ar
     4     2     3   ar
     5     3     4   ar
     6     4     5   ar
     7     5     6   ar
     8     6    11    1
     9    11    12    1
    10    11    14    1
    11    14    15   ar
    12    15    16   ar
    13    16    17   ar
    14    17    18   ar
    15    11    20    1
    16    20    21    1
    17    20    22    1
    18     6     7   ar
    19     7     8   ar
    20     8     9   ar
    21     9    10   ar
    22    10    25    1
    23    25    26    1
    24    10     1   ar
    25     8     3   ar
    26    18    14   ar
    27    12    13    1
    28    18    19    1
@<TRIPOS>MOLECULE
*****
 26 28 0 0 0
SMALL
GASTEIGER

@<TRIPOS>ATOM
      1 C          61.8909   87.8379   11.0706 C.ar    1  UNL1        0.1724
      2 C          62.6631   87.8112   12.3562 C.ar    1  UNL1        0.0400
      3 C          63.4887   88.9968   12.7600 C.ar    1  UNL1        0.0032
      4 C          64.2609   88.9701   14.0457 C.ar    1  UNL1       -0.0001
      5 C          65.0864   90.1556   14.4494 C.ar    1  UNL1       -0.0016
      6 C          65.1397   91.3678   13.5675 C.ar    1  UNL1        0.0085
      7 C          64.3674   91.3945   12.2819 C.ar    1  UNL1       -0.0015
      8 C          63.5419   90.2090   11.8782 C.ar    1  UNL1        0.0030
      9 C          62.7696   90.2356   10.5925 C.ar    1  UNL1        0.0400
     10 C          61.9441   89.0501   10.1887 C.ar    1  UNL1        0.1724
     11 C          65.9652   92.5533   13.9713 C.3     1  UNL1        0.1578
     12 O          65.2004   92.6477   15.2582 O.3     1  UNL1       -0.3755
     13 H          64.5321   91.9453   15.2894 H       1  UNL1        0.2112
     14 C          66.7301   92.4590   12.6845 C.ar    1  UNL1        0.1627
     15 N          66.2768   92.9716   11.3497 N.ar    1  UNL1       -0.2055
     16 C          67.3492   92.6648   10.3467 C.ar    1  UNL1        0.2204
     17 N          68.4653   91.9625   11.0617 N.ar    1  UNL1       -0.1488
     18 N          68.0827   91.8353   12.5065 N.ar    1  UNL1       -0.2594
     19 H          68.6243   91.4161   13.2137 H       1  UNL1        0.1904
     20 C          66.7908   93.7388   14.3751 C.3     1  UNL1        0.0356
     21 C          67.7116   93.6446   15.5554 C.3     1  UNL1        0.0032
     22 C          66.6955   95.0187   13.5985 C.3     1  UNL1        0.0032
     23 C          61.7151   85.4805    9.9926 C.3     1  UNL1        0.2526
     24 O          61.0653   86.6524   10.6668 O.3     1  UNL1       -0.4684
     25 O          61.1719   89.0768    8.9030 O.3     1  UNL1       -0.4684
     26 C          59.6879   89.2943    8.9239 C.3     1  UNL1        0.2526
@<TRIPOS>BOND
     1    23    24    1
     2    24     1    1
     3     1     2   ar
     4     2     3   ar
     5     3     4   ar
     6     4     5   ar
     7     5     6   ar
     8     6    11    1
     9    11    12    1
    10    11    14    1
    11    14    15   ar
    12    15    16   ar
    13    16    17   ar
    14    17    18   ar
    15    11    20    1
    16    20    21    1
    17    20    22    1
    18     6     7   ar
    19     7     8   ar
    20     8     9   ar
    21     9    10   ar
    22    10    25    1
    23    25    26    1
    24    10     1   ar
    25     8     3   ar
    26    18    14   ar
    27    12    13    1
    28    18    19    1
