@<TRIPOS>MOLECULE
*****
 49 52 0 0 0
SMALL
GASTEIGER

@<TRIPOS>ATOM
      1 N          64.9938   91.5753   12.9578 N.ar    1  UNL1       -0.2470
      2 C          64.8096   90.5827   14.0672 C.ar    1  UNL1        0.2654
      3 O          65.5561   90.7524   15.3571 O.2     1  UNL1       -0.2668
      4 C          63.8789   89.4203   13.8866 C.ar    1  UNL1        0.0703
      5 C          63.1324   89.2505   12.5967 C.ar    1  UNL1        0.0465
      6 C          62.4878   88.3672   12.5892 C.3     1  UNL1        0.0503
      7 N          63.3165   90.2431   11.4873 N.ar    1  UNL1       -0.2806
      8 C          64.2472   91.4055   11.6679 C.ar    1  UNL1        0.3338
      9 O          64.4315   92.3982   10.5585 O.2     1  UNL1       -0.2462
     10 C          63.6947   88.4276   14.9961 C.ar    1  UNL1        0.0362
     11 C          63.0801   88.8595   16.2945 C.ar    1  UNL1        0.0026
     12 C          62.8959   87.8669   17.4039 C.ar    1  UNL1        0.0033
     13 C          63.3262   86.4423   17.2149 C.ar    1  UNL1        0.0392
     14 C          63.9407   86.0105   15.9164 C.ar    1  UNL1        0.1658
     15 C          64.1249   87.0032   14.8070 C.ar    1  UNL1        0.1739
     16 F          64.7395   86.5713   13.5086 F       1  UNL1       -0.2010
     17 O          64.3710   84.5861   15.7274 O.3     1  UNL1       -0.4732
     18 C          63.3686   83.5478   15.3188 C.3     1  UNL1        0.2055
     19 C          62.3370   83.8696   14.2784 C.3     1  UNL1        0.0477
     20 C          62.4716   83.3139   12.8917 C.3     1  UNL1        0.0088
     21 C          62.4900   81.9223   13.4512 C.3     1  UNL1        0.0005
     22 C          62.4531   84.7055   12.3322 C.3     1  UNL1        0.0005
     23 C          62.6062   82.7582   11.5050 C.3     1  UNL1        0.0418
     24 C          63.8451   83.0310   10.7046 C.2     1  UNL1        0.0503
     25 O          63.7432   83.7195    9.3760 O.co2   1  UNL1       -0.5492
     26 O          65.1861   82.6152   11.2331 O.co2   1  UNL1       -0.5492
     27 C          65.9245   92.7377   13.1383 C.3     1  UNL1        0.1337
     28 C          67.3164   92.6774   12.5824 C.3     1  UNL1        0.1000
     29 C          67.5739   93.0776   11.1598 C.ar    1  UNL1       -0.0061
     30 C          67.1074   94.4127   10.6601 C.ar    1  UNL1       -0.0029
     31 C          67.3649   94.8128    9.2376 C.ar    1  UNL1       -0.0003
     32 C          68.0888   93.8777    8.3148 C.ar    1  UNL1       -0.0000
     33 C          68.5553   92.5426    8.8145 C.ar    1  UNL1       -0.0003
     34 C          68.2978   92.1425   10.2370 C.ar    1  UNL1       -0.0029
     35 C          68.4879   92.5959   14.9000 C.3     1  UNL1        0.0861
     36 N          68.4508   92.2170   13.4490 N.3     1  UNL1       -0.2924
     37 H          68.4557   91.1977   13.4107 H       1  UNL1        0.1236
     38 C          62.5700   90.0733   10.1974 C.3     1  UNL1        0.1391
     39 C          61.7398   88.8454    9.9674 C.ar    1  UNL1        0.0319
     40 C          62.3610   87.6234    9.3584 C.ar    1  UNL1        0.1379
     41 F          63.4003   87.5019    9.0412 F       1  UNL1       -0.2044
     42 C          61.5308   86.3955    9.1283 C.ar    1  UNL1        0.0294
     43 C          60.0794   86.3896    9.5072 C.ar    1  UNL1        0.0022
     44 C          59.4583   87.6115   10.1161 C.ar    1  UNL1        0.0037
     45 C          60.2885   88.8395   10.3462 C.ar    1  UNL1        0.0714
     46 C          59.6673   90.0615   10.9552 C.3     1  UNL1        0.4184
     47 F          59.0462   91.2835   11.5641 F       1  UNL1       -0.1659
     48 F          59.7201   90.7515    9.6244 F       1  UNL1       -0.1659
     49 F          59.6146   89.3715   12.2860 F       1  UNL1       -0.1659
@<TRIPOS>UNITY_ATOM_ATTR
25 1
charge -1
@<TRIPOS>BOND
     1    35    36    1
     2    36    28    1
     3    28    27    1
     4    27     1    1
     5     1     2   ar
     6     2     3    2
     7     2     4   ar
     8     4    10    1
     9    10    11   ar
    10    11    12   ar
    11    12    13   ar
    12    13    14   ar
    13    14    17    1
    14    17    18    1
    15    18    19    1
    16    19    20    1
    17    20    21    1
    18    20    22    1
    19    20    23    1
    20    23    24    1
    21    24    25   ar
    22    24    26   ar
    23    14    15   ar
    24    15    16    1
    25     4     5   ar
    26     5     6    1
    27     5     7   ar
    28     7    38    1
    29    38    39    1
    30    39    40   ar
    31    40    41    1
    32    40    42   ar
    33    42    43   ar
    34    43    44   ar
    35    44    45   ar
    36    45    46    1
    37    46    47    1
    38    46    48    1
    39    46    49    1
    40     7     8   ar
    41     8     9    2
    42    28    29    1
    43    29    30   ar
    44    30    31   ar
    45    31    32   ar
    46    32    33   ar
    47    33    34   ar
    48     8     1   ar
    49    34    29   ar
    50    15    10   ar
    51    45    39   ar
    52    36    37    1
@<TRIPOS>MOLECULE
*****
 49 52 0 0 0
SMALL
GASTEIGER

@<TRIPOS>ATOM
      1 N          63.6696   86.9021   13.4002 N.ar    1  UNL1       -0.2470
      2 C          63.0140   86.4858   12.1170 C.ar    1  UNL1        0.2654
      3 O          62.8391   85.0297   11.8020 O.2     1  UNL1       -0.2668
      4 C          62.5333   87.5256   11.1487 C.ar    1  UNL1        0.0703
      5 C          62.7082   88.9817   11.4636 C.ar    1  UNL1        0.0465
      6 C          62.3177   89.6380   10.6809 C.3     1  UNL1        0.0503
      7 N          63.3638   89.3980   12.7469 N.ar    1  UNL1       -0.2806
      8 C          63.8445   88.3582   13.7152 C.ar    1  UNL1        0.3338
      9 O          64.5001   88.7745   14.9985 O.2     1  UNL1       -0.2462
     10 C          61.8776   87.1093    9.8653 C.ar    1  UNL1        0.0362
     11 C          62.4295   85.9560    9.0809 C.ar    1  UNL1        0.0026
     12 C          61.7739   85.5397    7.7976 C.ar    1  UNL1        0.0033
     13 C          60.5664   86.2767    7.2987 C.ar    1  UNL1        0.0392
     14 C          60.0146   87.4300    8.0831 C.ar    1  UNL1        0.1658
     15 C          60.6702   87.8463    9.3665 C.ar    1  UNL1        0.1739
     16 F          60.1184   88.9996   10.1509 F       1  UNL1       -0.2010
     17 O          58.8071   88.1670    7.5843 O.3     1  UNL1       -0.4732
     18 C          58.9391   89.5793    7.0963 C.3     1  UNL1        0.2055
     19 C          58.6211   89.9124    5.6687 C.3     1  UNL1        0.0477
     20 C          59.0133   91.2457    5.1044 C.3     1  UNL1        0.0088
     21 C          60.4610   90.8775    5.2408 C.3     1  UNL1        0.0005
     22 C          57.5656   91.6138    4.9681 C.3     1  UNL1        0.0005
     23 C          59.4055   92.5790    4.5401 C.3     1  UNL1        0.0418
     24 C          59.9606   92.6709    3.1497 C.2     1  UNL1        0.0503
     25 O          59.0322   92.7974    1.9783 O.co2   1  UNL1       -0.5492
     26 O          61.4442   92.6364    2.9306 O.co2   1  UNL1       -0.5492
     27 C          64.1504   85.8623   14.3687 C.3     1  UNL1        0.1337
     28 C          63.1734   84.9121   14.9951 C.3     1  UNL1        0.1000
     29 C          63.0518   83.5103   14.4749 C.ar    1  UNL1       -0.0061
     30 C          61.7917   82.7307   14.7076 C.ar    1  UNL1       -0.0029
     31 C          61.6701   81.3291   14.1875 C.ar    1  UNL1       -0.0003
     32 C          62.8087   80.7070   13.4347 C.ar    1  UNL1       -0.0000
     33 C          64.0688   81.4867   13.2020 C.ar    1  UNL1       -0.0003
     34 C          64.1904   82.8883   13.7221 C.ar    1  UNL1       -0.0029
     35 C          62.8880   86.2716   17.1906 C.3     1  UNL1        0.0861
     36 N          62.3180   85.3634   16.1416 N.3     1  UNL1       -0.2924
     37 H          61.5157   85.8469   15.7379 H       1  UNL1        0.1236
     38 C          63.5387   90.8541   13.0618 C.3     1  UNL1        0.1391
     39 C          64.6511   91.6313   12.4228 C.ar    1  UNL1        0.0319
     40 C          64.5926   91.9603   10.9604 C.ar    1  UNL1        0.1379
     41 F          63.7995   91.6926   10.2569 F       1  UNL1       -0.2044
     42 C          65.7051   92.7375   10.3215 C.ar    1  UNL1        0.0294
     43 C          66.8761   93.1858   11.1448 C.ar    1  UNL1        0.0022
     44 C          66.9346   92.8569   12.6071 C.ar    1  UNL1        0.0037
     45 C          65.8221   92.0797   13.2461 C.ar    1  UNL1        0.0714
     46 C          65.8806   91.7508   14.7084 C.3     1  UNL1        0.4184
     47 F          65.9391   91.4219   16.1707 F       1  UNL1       -0.1659
     48 F          65.2052   93.0514   15.0280 F       1  UNL1       -0.1659
     49 F          66.5560   90.4502   14.3889 F       1  UNL1       -0.1659
@<TRIPOS>UNITY_ATOM_ATTR
25 1
charge -1
@<TRIPOS>BOND
     1    35    36    1
     2    36    28    1
     3    28    27    1
     4    27     1    1
     5     1     2   ar
     6     2     3    2
     7     2     4   ar
     8     4    10    1
     9    10    11   ar
    10    11    12   ar
    11    12    13   ar
    12    13    14   ar
    13    14    17    1
    14    17    18    1
    15    18    19    1
    16    19    20    1
    17    20    21    1
    18    20    22    1
    19    20    23    1
    20    23    24    1
    21    24    25   ar
    22    24    26   ar
    23    14    15   ar
    24    15    16    1
    25     4     5   ar
    26     5     6    1
    27     5     7   ar
    28     7    38    1
    29    38    39    1
    30    39    40   ar
    31    40    41    1
    32    40    42   ar
    33    42    43   ar
    34    43    44   ar
    35    44    45   ar
    36    45    46    1
    37    46    47    1
    38    46    48    1
    39    46    49    1
    40     7     8   ar
    41     8     9    2
    42    28    29    1
    43    29    30   ar
    44    30    31   ar
    45    31    32   ar
    46    32    33   ar
    47    33    34   ar
    48     8     1   ar
    49    34    29   ar
    50    15    10   ar
    51    45    39   ar
    52    36    37    1
@<TRIPOS>MOLECULE
*****
 49 52 0 0 0
SMALL
GASTEIGER

@<TRIPOS>ATOM
      1 N          63.4861   89.7085   12.6491 N.ar    1  UNL1       -0.2470
      2 C          62.7974   89.2401   11.4016 C.ar    1  UNL1        0.2654
      3 O          62.3205   90.2380   10.3884 O.2     1  UNL1       -0.2668
      4 C          62.5855   87.7737   11.1675 C.ar    1  UNL1        0.0703
      5 C          63.0624   86.7758   12.1808 C.ar    1  UNL1        0.0465
      6 C          62.8492   85.7420   11.8954 C.3     1  UNL1        0.0503
      7 N          63.7511   87.2443   13.4282 N.ar    1  UNL1       -0.2806
      8 C          63.9630   88.7106   13.6624 C.ar    1  UNL1        0.3338
      9 O          64.6518   89.1791   14.9098 O.2     1  UNL1       -0.2462
     10 C          61.8967   87.3052    9.9200 C.ar    1  UNL1        0.0362
     11 C          62.4142   86.1057    9.1830 C.ar    1  UNL1        0.0026
     12 C          61.7255   85.6372    7.9356 C.ar    1  UNL1        0.0033
     13 C          60.5191   86.3682    7.4252 C.ar    1  UNL1        0.0392
     14 C          60.0016   87.5677    8.1622 C.ar    1  UNL1        0.1658
     15 C          60.6904   88.0362    9.4097 C.ar    1  UNL1        0.1739
     16 F          60.1729   89.2357   10.1468 F       1  UNL1       -0.2010
     17 O          58.7953   88.2987    7.6519 O.3     1  UNL1       -0.4732
     18 C          58.9357   89.6895    7.1079 C.3     1  UNL1        0.2055
     19 C          58.6308   89.9648    5.6652 C.3     1  UNL1        0.0477
     20 C          59.0017   91.2858    5.0591 C.3     1  UNL1        0.0088
     21 C          57.5483   91.6193    4.8964 C.3     1  UNL1        0.0005
     22 C          60.4550   90.9523    5.2217 C.3     1  UNL1        0.0005
     23 C          59.3726   92.6067    4.4530 C.3     1  UNL1        0.0418
     24 C          60.0179   92.6563    3.0998 C.2     1  UNL1        0.0503
     25 O          59.1751   92.8446    1.8734 O.co2   1  UNL1       -0.5492
     26 O          61.5062   92.5175    2.9731 O.co2   1  UNL1       -0.5492
     27 C          63.6981   91.1750   12.8832 C.3     1  UNL1        0.1337
     28 C          65.0258   91.7999   12.5725 C.3     1  UNL1        0.1000
     29 C          66.0158   92.0439   13.6728 C.ar    1  UNL1       -0.0061
     30 C          65.5355   92.3977   15.0490 C.ar    1  UNL1       -0.0029
     31 C          66.5254   92.6416   16.1492 C.ar    1  UNL1       -0.0003
     32 C          67.9957   92.5318   15.8731 C.ar    1  UNL1       -0.0000
     33 C          68.4760   92.1781   14.4968 C.ar    1  UNL1       -0.0003
     34 C          67.4860   91.9341   13.3967 C.ar    1  UNL1       -0.0029
     35 C          65.5942   93.6203   10.8082 C.3     1  UNL1        0.0861
     36 N          65.3636   92.1809   11.1616 N.3     1  UNL1       -0.2924
     37 H          66.2161   91.6773   10.9167 H       1  UNL1        0.1236
     38 C          64.2280   86.2464   14.4415 C.3     1  UNL1        0.1391
     39 C          63.7406   84.8289   14.3852 C.ar    1  UNL1        0.0319
     40 C          64.3376   83.8691   13.3990 C.ar    1  UNL1        0.1379
     41 F          65.1278   84.0784   12.6727 F       1  UNL1       -0.2044
     42 C          63.8502   82.4517   13.3427 C.ar    1  UNL1        0.0294
     43 C          62.7659   81.9939   14.2725 C.ar    1  UNL1        0.0022
     44 C          62.1689   82.9536   15.2587 C.ar    1  UNL1        0.0037
     45 C          62.6563   84.3711   15.3151 C.ar    1  UNL1        0.0714
     46 C          62.0594   85.3308   16.3013 C.3     1  UNL1        0.4184
     47 F          61.4624   86.2905   17.2874 F       1  UNL1       -0.1659
     48 F          60.7361   85.2255   15.6028 F       1  UNL1       -0.1659
     49 F          63.3826   85.4361   16.9997 F       1  UNL1       -0.1659
@<TRIPOS>UNITY_ATOM_ATTR
25 1
charge -1
@<TRIPOS>BOND
     1    35    36    1
     2    36    28    1
     3    28    27    1
     4    27     1    1
     5     1     2   ar
     6     2     3    2
     7     2     4   ar
     8     4    10    1
     9    10    11   ar
    10    11    12   ar
    11    12    13   ar
    12    13    14   ar
    13    14    17    1
    14    17    18    1
    15    18    19    1
    16    19    20    1
    17    20    21    1
    18    20    22    1
    19    20    23    1
    20    23    24    1
    21    24    25   ar
    22    24    26   ar
    23    14    15   ar
    24    15    16    1
    25     4     5   ar
    26     5     6    1
    27     5     7   ar
    28     7    38    1
    29    38    39    1
    30    39    40   ar
    31    40    41    1
    32    40    42   ar
    33    42    43   ar
    34    43    44   ar
    35    44    45   ar
    36    45    46    1
    37    46    47    1
    38    46    48    1
    39    46    49    1
    40     7     8   ar
    41     8     9    2
    42    28    29    1
    43    29    30   ar
    44    30    31   ar
    45    31    32   ar
    46    32    33   ar
    47    33    34   ar
    48     8     1   ar
    49    34    29   ar
    50    15    10   ar
    51    45    39   ar
    52    36    37    1
@<TRIPOS>MOLECULE
*****
 49 52 0 0 0
SMALL
GASTEIGER

@<TRIPOS>ATOM
      1 N          64.7267   89.7403   13.8164 N.ar    1  UNL1       -0.2470
      2 C          63.5576   89.4165   12.9342 C.ar    1  UNL1        0.2654
      3 O          62.7699   88.1608   13.1638 O.2     1  UNL1       -0.2668
      4 C          63.1763   90.3484   11.8224 C.ar    1  UNL1        0.0703
      5 C          63.9640   91.6041   11.5928 C.ar    1  UNL1        0.0465
      6 C          63.5876   92.1973   10.7549 C.3     1  UNL1        0.0503
      7 N          65.1331   91.9279   12.4750 N.ar    1  UNL1       -0.2806
      8 C          65.5144   90.9960   13.5868 C.ar    1  UNL1        0.3338
      9 O          66.6836   91.3198   14.4691 O.2     1  UNL1       -0.2462
     10 C          62.0071   90.0246   10.9401 C.ar    1  UNL1        0.0362
     11 C          60.7337   90.8074   11.0652 C.ar    1  UNL1        0.0026
     12 C          59.5646   90.4836   10.1830 C.ar    1  UNL1        0.0033
     13 C          59.6689   89.3770    9.1757 C.ar    1  UNL1        0.0392
     14 C          60.9423   88.5942    9.0506 C.ar    1  UNL1        0.1658
     15 C          62.1114   88.9180    9.9329 C.ar    1  UNL1        0.1739
     16 F          63.3848   88.1352    9.8079 F       1  UNL1       -0.2010
     17 O          61.0466   87.4876    8.0434 O.3     1  UNL1       -0.4732
     18 C          61.2564   86.0746    8.5007 C.3     1  UNL1        0.2055
     19 C          61.3140   85.7613    9.9666 C.3     1  UNL1        0.0477
     20 C          62.4999   85.0385   10.5331 C.3     1  UNL1        0.0088
     21 C          61.9488   85.2185   11.9165 C.3     1  UNL1        0.0005
     22 C          63.0511   84.8586    9.1497 C.3     1  UNL1        0.0005
     23 C          63.6859   84.3157   11.0996 C.3     1  UNL1        0.0418
     24 C          63.7707   82.8213   11.0013 C.2     1  UNL1        0.0503
     25 O          64.7914   82.1854   10.1049 O.co2   1  UNL1       -0.5492
     26 O          62.8346   81.9629   11.7994 O.co2   1  UNL1       -0.5492
     27 C          65.1081   88.8084   14.9283 C.3     1  UNL1        0.1337
     28 C          64.0614   87.9614   15.5893 C.3     1  UNL1        0.1000
     29 C          64.0552   86.4763   15.3785 C.ar    1  UNL1       -0.0061
     30 C          62.9561   85.6402   15.9639 C.ar    1  UNL1       -0.0029
     31 C          62.9499   84.1552   15.7531 C.ar    1  UNL1       -0.0003
     32 C          64.0430   83.5062   14.9568 C.ar    1  UNL1       -0.0000
     33 C          65.1421   84.3422   14.3713 C.ar    1  UNL1       -0.0003
     34 C          65.1483   85.8273   14.5822 C.ar    1  UNL1       -0.0029
     35 C          63.1052   90.0626   16.7814 C.3     1  UNL1        0.0861
     36 N          63.0209   88.5995   16.4611 N.3     1  UNL1       -0.2924
     37 H          62.1214   88.4495   16.0041 H       1  UNL1        0.1236
     38 C          65.9208   93.1836   12.2454 C.3     1  UNL1        0.1391
     39 C          66.7321   93.3417   10.9937 C.ar    1  UNL1        0.0319
     40 C          67.6154   92.2231   10.5261 C.ar    1  UNL1        0.1379
     41 F          67.7544   91.2501   11.0052 F       1  UNL1       -0.2044
     42 C          68.4266   92.3812    9.2744 C.ar    1  UNL1        0.0294
     43 C          68.3547   93.6579    8.4903 C.ar    1  UNL1        0.0022
     44 C          67.4714   94.7765    8.9578 C.ar    1  UNL1        0.0037
     45 C          66.6601   94.6184   10.2096 C.ar    1  UNL1        0.0714
     46 C          65.7769   95.7370   10.6772 C.3     1  UNL1        0.4184
     47 F          64.8937   96.8556   11.1448 F       1  UNL1       -0.1659
     48 F          66.9123   96.2972   11.4816 F       1  UNL1       -0.1659
     49 F          64.6416   95.1768    9.8728 F       1  UNL1       -0.1659
@<TRIPOS>UNITY_ATOM_ATTR
25 1
charge -1
@<TRIPOS>BOND
     1    35    36    1
     2    36    28    1
     3    28    27    1
     4    27     1    1
     5     1     2   ar
     6     2     3    2
     7     2     4   ar
     8     4    10    1
     9    10    11   ar
    10    11    12   ar
    11    12    13   ar
    12    13    14   ar
    13    14    17    1
    14    17    18    1
    15    18    19    1
    16    19    20    1
    17    20    21    1
    18    20    22    1
    19    20    23    1
    20    23    24    1
    21    24    25   ar
    22    24    26   ar
    23    14    15   ar
    24    15    16    1
    25     4     5   ar
    26     5     6    1
    27     5     7   ar
    28     7    38    1
    29    38    39    1
    30    39    40   ar
    31    40    41    1
    32    40    42   ar
    33    42    43   ar
    34    43    44   ar
    35    44    45   ar
    36    45    46    1
    37    46    47    1
    38    46    48    1
    39    46    49    1
    40     7     8   ar
    41     8     9    2
    42    28    29    1
    43    29    30   ar
    44    30    31   ar
    45    31    32   ar
    46    32    33   ar
    47    33    34   ar
    48     8     1   ar
    49    34    29   ar
    50    15    10   ar
    51    45    39   ar
    52    36    37    1
@<TRIPOS>MOLECULE
*****
 49 52 0 0 0
SMALL
GASTEIGER

@<TRIPOS>ATOM
      1 N          63.5435   86.3944   13.4847 N.ar    1  UNL1       -0.2470
      2 C          63.0041   86.0208   12.1359 C.ar    1  UNL1        0.2654
      3 O          62.8907   84.5764   11.7473 O.2     1  UNL1       -0.2668
      4 C          62.5782   87.0915   11.1757 C.ar    1  UNL1        0.0703
      5 C          62.6916   88.5358   11.5643 C.ar    1  UNL1        0.0465
      6 C          62.3499   89.2173   10.7803 C.3     1  UNL1        0.0503
      7 N          63.2310   88.9095   12.9131 N.ar    1  UNL1       -0.2806
      8 C          63.6570   87.8388   13.8733 C.ar    1  UNL1        0.3338
      9 O          64.1964   88.2124   15.2223 O.2     1  UNL1       -0.2462
     10 C          62.0387   86.7179    9.8268 C.ar    1  UNL1        0.0362
     11 C          62.6806   85.6121    9.0423 C.ar    1  UNL1        0.0026
     12 C          62.1412   85.2385    7.6935 C.ar    1  UNL1        0.0033
     13 C          60.9599   85.9707    7.1290 C.ar    1  UNL1        0.0392
     14 C          60.3181   87.0764    7.9134 C.ar    1  UNL1        0.1658
     15 C          60.8575   87.4500    9.2623 C.ar    1  UNL1        0.1739
     16 F          60.2157   88.5558   10.0468 F       1  UNL1       -0.2010
     17 O          59.1368   87.8086    7.3490 O.3     1  UNL1       -0.4732
     18 C          59.2563   89.2596    6.9883 C.3     1  UNL1        0.2055
     19 C          58.5338   89.7961    5.7881 C.3     1  UNL1        0.0477
     20 C          58.9109   91.1325    5.2210 C.3     1  UNL1        0.0088
     21 C          60.3604   90.8188    5.4457 C.3     1  UNL1        0.0005
     22 C          57.4614   91.4462    4.9963 C.3     1  UNL1        0.0005
     23 C          59.2880   92.4689    4.6539 C.3     1  UNL1        0.0418
     24 C          59.9043   92.5577    3.2892 C.2     1  UNL1        0.0503
     25 O          61.3894   92.4238    3.1267 O.co2   1  UNL1       -0.5492
     26 O          59.0353   92.7805    2.0869 O.co2   1  UNL1       -0.5492
     27 C          63.9695   85.3237   14.4451 C.3     1  UNL1        0.1337
     28 C          62.9469   84.4067   15.0478 C.3     1  UNL1        0.1000
     29 C          62.7773   83.0162   14.5111 C.ar    1  UNL1       -0.0061
     30 C          63.9491   82.2944   13.9146 C.ar    1  UNL1       -0.0029
     31 C          63.7795   80.9040   13.3780 C.ar    1  UNL1       -0.0003
     32 C          62.4380   80.2355   13.4378 C.ar    1  UNL1       -0.0000
     33 C          61.2662   80.9573   14.0343 C.ar    1  UNL1       -0.0003
     34 C          61.4359   82.3477   14.5709 C.ar    1  UNL1       -0.0029
     35 C          62.6345   85.8831   17.1626 C.3     1  UNL1        0.0861
     36 N          62.0938   84.8800   16.1871 N.3     1  UNL1       -0.2924
     37 H          61.2555   85.2911   15.7764 H       1  UNL1        0.1236
     38 C          63.3445   90.3538   13.3017 C.3     1  UNL1        0.1391
     39 C          64.6766   91.0415   13.2517 C.ar    1  UNL1        0.0319
     40 C          65.6044   90.9658   14.4279 C.ar    1  UNL1        0.1379
     41 F          65.4278   90.4448   15.3729 F       1  UNL1       -0.2044
     42 C          66.9365   91.6535   14.3779 C.ar    1  UNL1        0.0294
     43 C          67.3408   92.4170   13.1517 C.ar    1  UNL1        0.0022
     44 C          66.4131   92.4928   11.9755 C.ar    1  UNL1        0.0037
     45 C          65.0809   91.8050   12.0255 C.ar    1  UNL1        0.0714
     46 C          64.1531   91.8808   10.8493 C.3     1  UNL1        0.4184
     47 F          63.2254   91.9566    9.6731 F       1  UNL1       -0.1659
     48 F          62.9850   92.0207   11.7797 F       1  UNL1       -0.1659
     49 F          65.3213   91.7409    9.9188 F       1  UNL1       -0.1659
@<TRIPOS>UNITY_ATOM_ATTR
25 1
charge -1
@<TRIPOS>BOND
     1    35    36    1
     2    36    28    1
     3    28    27    1
     4    27     1    1
     5     1     2   ar
     6     2     3    2
     7     2     4   ar
     8     4    10    1
     9    10    11   ar
    10    11    12   ar
    11    12    13   ar
    12    13    14   ar
    13    14    17    1
    14    17    18    1
    15    18    19    1
    16    19    20    1
    17    20    21    1
    18    20    22    1
    19    20    23    1
    20    23    24    1
    21    24    25   ar
    22    24    26   ar
    23    14    15   ar
    24    15    16    1
    25     4     5   ar
    26     5     6    1
    27     5     7   ar
    28     7    38    1
    29    38    39    1
    30    39    40   ar
    31    40    41    1
    32    40    42   ar
    33    42    43   ar
    34    43    44   ar
    35    44    45   ar
    36    45    46    1
    37    46    47    1
    38    46    48    1
    39    46    49    1
    40     7     8   ar
    41     8     9    2
    42    28    29    1
    43    29    30   ar
    44    30    31   ar
    45    31    32   ar
    46    32    33   ar
    47    33    34   ar
    48     8     1   ar
    49    34    29   ar
    50    15    10   ar
    51    45    39   ar
    52    36    37    1
@<TRIPOS>MOLECULE
*****
 49 52 0 0 0
SMALL
GASTEIGER

@<TRIPOS>ATOM
      1 N          63.6051   90.4454   12.0935 N.ar    1  UNL1       -0.2470
      2 C          62.8195   89.8208   10.9788 C.ar    1  UNL1        0.2654
      3 O          62.2454   90.6809    9.8922 O.2     1  UNL1       -0.2668
      4 C          62.6080   88.3361   10.9506 C.ar    1  UNL1        0.0703
      5 C          63.1821   87.4759   12.0371 C.ar    1  UNL1        0.0465
      6 C          62.9593   86.4137   11.9038 C.3     1  UNL1        0.0503
      7 N          63.9677   88.1005   13.1519 N.ar    1  UNL1       -0.2806
      8 C          64.1791   89.5853   13.1801 C.ar    1  UNL1        0.3338
      9 O          64.9648   90.2099   14.2949 O.2     1  UNL1       -0.2462
     10 C          61.8224   87.7114    9.8358 C.ar    1  UNL1        0.0362
     11 C          62.2755   86.4141    9.2342 C.ar    1  UNL1        0.0026
     12 C          61.4900   85.7895    8.1195 C.ar    1  UNL1        0.0033
     13 C          60.2513   86.4620    7.6063 C.ar    1  UNL1        0.0392
     14 C          59.7982   87.7592    8.2078 C.ar    1  UNL1        0.1658
     15 C          60.5838   88.3839    9.3226 C.ar    1  UNL1        0.1739
     16 F          60.1306   89.6812    9.9242 F       1  UNL1       -0.2010
     17 O          58.5595   88.4318    7.6947 O.3     1  UNL1       -0.4732
     18 C          58.6524   89.7819    7.0478 C.3     1  UNL1        0.2055
     19 C          59.2576   89.9192    5.6821 C.3     1  UNL1        0.0477
     20 C          59.3851   91.2740    5.0511 C.3     1  UNL1        0.0088
     21 C          60.8714   91.0926    4.9619 C.3     1  UNL1        0.0005
     22 C          57.8988   91.4554    5.1403 C.3     1  UNL1        0.0005
     23 C          59.5126   92.6288    4.4200 C.3     1  UNL1        0.0418
     24 C          60.0421   92.7584    3.0225 C.2     1  UNL1        0.0503
     25 O          61.5207   92.7168    2.7738 O.co2   1  UNL1       -0.5492
     26 O          59.0928   92.9296    1.8737 O.co2   1  UNL1       -0.5492
     27 C          63.8166   91.9302   12.1217 C.3     1  UNL1        0.1337
     28 C          65.1759   92.4885   12.4222 C.3     1  UNL1        0.1000
     29 C          66.1090   92.8356   11.3001 C.ar    1  UNL1       -0.0061
     30 C          65.8914   94.0882   10.5041 C.ar    1  UNL1       -0.0029
     31 C          66.8245   94.4352    9.3820 C.ar    1  UNL1       -0.0003
     32 C          67.9750   93.5297    9.0561 C.ar    1  UNL1       -0.0000
     33 C          68.1926   92.2772    9.8521 C.ar    1  UNL1       -0.0003
     34 C          67.2596   91.9301   10.9741 C.ar    1  UNL1       -0.0029
     35 C          66.6869   93.6856   14.1641 C.3     1  UNL1        0.0861
     36 N          65.6023   92.6998   13.8447 N.3     1  UNL1       -0.2924
     37 H          64.7734   92.9969   14.3595 H       1  UNL1        0.1236
     38 C          64.5418   87.2404   14.2384 C.3     1  UNL1        0.1391
     39 C          63.7428   86.9646   15.4776 C.ar    1  UNL1        0.0319
     40 C          63.4161   88.0821   16.4235 C.ar    1  UNL1        0.1379
     41 F          63.7000   89.1333   16.3234 F       1  UNL1       -0.2044
     42 C          62.6171   87.8063   17.6627 C.ar    1  UNL1        0.0294
     43 C          62.1449   86.4131   17.9561 C.ar    1  UNL1        0.0022
     44 C          62.4717   85.2957   17.0102 C.ar    1  UNL1        0.0037
     45 C          63.2706   85.5714   15.7710 C.ar    1  UNL1        0.0714
     46 C          63.5974   84.4540   14.8252 C.3     1  UNL1        0.4184
     47 F          63.9241   83.3366   13.8794 F       1  UNL1       -0.1659
     48 F          65.0190   84.4649   15.3035 F       1  UNL1       -0.1659
     49 F          62.1758   84.4432   14.3469 F       1  UNL1       -0.1659
@<TRIPOS>UNITY_ATOM_ATTR
25 1
charge -1
@<TRIPOS>BOND
     1    35    36    1
     2    36    28    1
     3    28    27    1
     4    27     1    1
     5     1     2   ar
     6     2     3    2
     7     2     4   ar
     8     4    10    1
     9    10    11   ar
    10    11    12   ar
    11    12    13   ar
    12    13    14   ar
    13    14    17    1
    14    17    18    1
    15    18    19    1
    16    19    20    1
    17    20    21    1
    18    20    22    1
    19    20    23    1
    20    23    24    1
    21    24    25   ar
    22    24    26   ar
    23    14    15   ar
    24    15    16    1
    25     4     5   ar
    26     5     6    1
    27     5     7   ar
    28     7    38    1
    29    38    39    1
    30    39    40   ar
    31    40    41    1
    32    40    42   ar
    33    42    43   ar
    34    43    44   ar
    35    44    45   ar
    36    45    46    1
    37    46    47    1
    38    46    48    1
    39    46    49    1
    40     7     8   ar
    41     8     9    2
    42    28    29    1
    43    29    30   ar
    44    30    31   ar
    45    31    32   ar
    46    32    33   ar
    47    33    34   ar
    48     8     1   ar
    49    34    29   ar
    50    15    10   ar
    51    45    39   ar
    52    36    37    1
@<TRIPOS>MOLECULE
*****
 49 52 0 0 0
SMALL
GASTEIGER

@<TRIPOS>ATOM
      1 N          64.8290   91.4413   13.0621 N.ar    1  UNL1       -0.2470
      2 C          63.6825   91.2458   12.1148 C.ar    1  UNL1        0.2654
      3 O          63.2434   92.3716   11.2262 O.2     1  UNL1       -0.2668
      4 C          62.9751   89.9244   12.0562 C.ar    1  UNL1        0.0703
      5 C          63.4142   88.7985   12.9448 C.ar    1  UNL1        0.0465
      6 C          62.8210   87.8901   12.8081 C.3     1  UNL1        0.0503
      7 N          64.5607   88.9940   13.8920 N.ar    1  UNL1       -0.2806
      8 C          65.2680   90.3154   13.9507 C.ar    1  UNL1        0.3338
      9 O          66.4146   90.5110   14.8980 O.2     1  UNL1       -0.2462
     10 C          61.8286   89.7288   11.1089 C.ar    1  UNL1        0.0362
     11 C          60.5310   90.4434   11.3443 C.ar    1  UNL1        0.0026
     12 C          59.3845   90.2478   10.3971 C.ar    1  UNL1        0.0033
     13 C          59.5356   89.3377    9.2143 C.ar    1  UNL1        0.0392
     14 C          60.8333   88.6231    8.9789 C.ar    1  UNL1        0.1658
     15 C          61.9798   88.8187    9.9262 C.ar    1  UNL1        0.1739
     16 F          63.2775   88.1041    9.6907 F       1  UNL1       -0.2010
     17 O          60.9845   87.7130    7.7962 O.3     1  UNL1       -0.4732
     18 C          61.0567   86.2282    7.9968 C.3     1  UNL1        0.2055
     19 C          61.0565   85.6580    9.3843 C.3     1  UNL1        0.0477
     20 C          62.3219   85.1014    9.9665 C.3     1  UNL1        0.0088
     21 C          61.7561   85.2590   11.3467 C.3     1  UNL1        0.0005
     22 C          62.8876   84.9438    8.5863 C.3     1  UNL1        0.0005
     23 C          63.5872   84.5448   10.5487 C.3     1  UNL1        0.0418
     24 C          63.7308   83.0660   10.7551 C.2     1  UNL1        0.0503
     25 O          64.8199   82.3126   10.0507 O.co2   1  UNL1       -0.5492
     26 O          62.7852   82.3406   11.6661 O.co2   1  UNL1       -0.5492
     27 C          65.5364   92.7627   13.1208 C.3     1  UNL1        0.1337
     28 C          66.9716   92.8646   12.6969 C.3     1  UNL1        0.1000
     29 C          67.3123   93.1278   11.2599 C.ar    1  UNL1       -0.0061
     30 C          68.1148   92.1259   10.4838 C.ar    1  UNL1       -0.0029
     31 C          68.4555   92.3891    9.0470 C.ar    1  UNL1       -0.0003
     32 C          67.9937   93.6542    8.3862 C.ar    1  UNL1       -0.0000
     33 C          67.1913   94.6560    9.1624 C.ar    1  UNL1       -0.0003
     34 C          66.8506   94.3928   10.5992 C.ar    1  UNL1       -0.0029
     35 C          67.9830   93.4208   15.0245 C.3     1  UNL1        0.0861
     36 N          68.0661   92.7033   13.7098 N.3     1  UNL1       -0.2924
     37 H          68.1272   91.7073   13.9212 H       1  UNL1        0.1236
     38 C          64.9997   87.8681   14.7806 C.3     1  UNL1        0.1391
     39 C          64.0114   87.2025   15.6917 C.ar    1  UNL1        0.0319
     40 C          63.2917   88.0068   16.7335 C.ar    1  UNL1        0.1379
     41 F          63.3986   89.0774   16.9283 F       1  UNL1       -0.2044
     42 C          62.3034   87.3411   17.6445 C.ar    1  UNL1        0.0294
     43 C          62.0346   85.8712   17.5138 C.ar    1  UNL1        0.0022
     44 C          62.7542   85.0669   16.4720 C.ar    1  UNL1        0.0037
     45 C          63.7426   85.7326   15.5609 C.ar    1  UNL1        0.0714
     46 C          64.4622   84.9283   14.5191 C.3     1  UNL1        0.4184
     47 F          65.1818   84.1240   13.4774 F       1  UNL1       -0.1659
     48 F          65.7748   85.4533   15.0205 F       1  UNL1       -0.1659
     49 F          63.1496   84.4033   14.0178 F       1  UNL1       -0.1659
@<TRIPOS>UNITY_ATOM_ATTR
25 1
charge -1
@<TRIPOS>BOND
     1    35    36    1
     2    36    28    1
     3    28    27    1
     4    27     1    1
     5     1     2   ar
     6     2     3    2
     7     2     4   ar
     8     4    10    1
     9    10    11   ar
    10    11    12   ar
    11    12    13   ar
    12    13    14   ar
    13    14    17    1
    14    17    18    1
    15    18    19    1
    16    19    20    1
    17    20    21    1
    18    20    22    1
    19    20    23    1
    20    23    24    1
    21    24    25   ar
    22    24    26   ar
    23    14    15   ar
    24    15    16    1
    25     4     5   ar
    26     5     6    1
    27     5     7   ar
    28     7    38    1
    29    38    39    1
    30    39    40   ar
    31    40    41    1
    32    40    42   ar
    33    42    43   ar
    34    43    44   ar
    35    44    45   ar
    36    45    46    1
    37    46    47    1
    38    46    48    1
    39    46    49    1
    40     7     8   ar
    41     8     9    2
    42    28    29    1
    43    29    30   ar
    44    30    31   ar
    45    31    32   ar
    46    32    33   ar
    47    33    34   ar
    48     8     1   ar
    49    34    29   ar
    50    15    10   ar
    51    45    39   ar
    52    36    37    1
@<TRIPOS>MOLECULE
*****
 49 52 0 0 0
SMALL
GASTEIGER

@<TRIPOS>ATOM
      1 N          62.8337   88.7982   12.9559 N.ar    1  UNL1       -0.2470
      2 C          61.9144   88.9228   11.7772 C.ar    1  UNL1        0.2654
      3 O          61.2148   90.2216   11.5057 O.2     1  UNL1       -0.2668
      4 C          61.6948   87.7486   10.8700 C.ar    1  UNL1        0.0703
      5 C          62.3944   86.4499   11.1415 C.ar    1  UNL1        0.0465
      6 C          62.1524   85.6733   10.4106 C.3     1  UNL1        0.0503
      7 N          63.3137   86.3252   12.3201 N.ar    1  UNL1       -0.2806
      8 C          63.5333   87.4994   13.2273 C.ar    1  UNL1        0.3338
      9 O          64.4527   87.3748   14.4061 O.2     1  UNL1       -0.2462
     10 C          60.7754   87.8732    9.6912 C.ar    1  UNL1        0.0362
     11 C          59.8773   86.7317    9.3166 C.ar    1  UNL1        0.0026
     12 C          58.9580   86.8562    8.1380 C.ar    1  UNL1        0.0033
     13 C          58.9368   88.1223    7.3338 C.ar    1  UNL1        0.0392
     14 C          59.8349   89.2639    7.7084 C.ar    1  UNL1        0.1658
     15 C          60.7542   89.1393    8.8872 C.ar    1  UNL1        0.1739
     16 F          61.6523   90.2808    9.2618 F       1  UNL1       -0.2010
     17 O          59.8137   90.5299    6.9043 O.3     1  UNL1       -0.4732
     18 C          59.8670   90.4681    5.4066 C.3     1  UNL1        0.2055
     19 C          61.0718   90.9842    4.6770 C.3     1  UNL1        0.0477
     20 C          60.9182   92.0578    3.6409 C.3     1  UNL1        0.0088
     21 C          59.4895   92.2524    4.0542 C.3     1  UNL1        0.0005
     22 C          62.3469   91.8633    3.2275 C.3     1  UNL1        0.0005
     23 C          60.7647   93.1315    2.6047 C.3     1  UNL1        0.0418
     24 C          60.2065   92.7956    1.2536 C.2     1  UNL1        0.0503
     25 O          58.9286   93.4304    0.7910 O.co2   1  UNL1       -0.5492
     26 O          60.9262   91.8247    0.3650 O.co2   1  UNL1       -0.5492
     27 C          63.0534   89.9723   13.8631 C.3     1  UNL1        0.1337
     28 C          63.8910   91.1287   13.4037 C.3     1  UNL1        0.1000
     29 C          65.1063   91.5318   14.1852 C.ar    1  UNL1       -0.0061
     30 C          64.9681   91.9735   15.6120 C.ar    1  UNL1       -0.0029
     31 C          66.1834   92.3765   16.3934 C.ar    1  UNL1       -0.0003
     32 C          67.5369   92.3379   15.7480 C.ar    1  UNL1       -0.0000
     33 C          67.6751   91.8962   14.3213 C.ar    1  UNL1       -0.0003
     34 C          66.4599   91.4931   13.5399 C.ar    1  UNL1       -0.0029
     35 C          64.3031   91.6936   10.9015 C.3     1  UNL1        0.0861
     36 N          63.5134   91.8821   12.1628 N.3     1  UNL1       -0.2924
     37 H          62.5491   91.6295   11.9470 H       1  UNL1        0.1236
     38 C          64.0133   85.0264   12.5916 C.3     1  UNL1        0.1391
     39 C          63.2509   83.8698   13.1668 C.ar    1  UNL1        0.0319
     40 C          62.5595   84.0112   14.4905 C.ar    1  UNL1        0.1379
     41 F          62.5362   84.8983   15.1294 F       1  UNL1       -0.2044
     42 C          61.7971   82.8545   15.0657 C.ar    1  UNL1        0.0294
     43 C          61.7262   81.5565   14.3174 C.ar    1  UNL1        0.0022
     44 C          62.4176   81.4151   12.9938 C.ar    1  UNL1        0.0037
     45 C          63.1800   82.5718   12.4185 C.ar    1  UNL1        0.0714
     46 C          63.8714   82.4304   11.0949 C.3     1  UNL1        0.4184
     47 F          64.5628   82.2889    9.7713 F       1  UNL1       -0.1659
     48 F          65.1952   82.3474   11.7953 F       1  UNL1       -0.1659
     49 F          62.5476   82.5133   10.3945 F       1  UNL1       -0.1659
@<TRIPOS>UNITY_ATOM_ATTR
25 1
charge -1
@<TRIPOS>BOND
     1    35    36    1
     2    36    28    1
     3    28    27    1
     4    27     1    1
     5     1     2   ar
     6     2     3    2
     7     2     4   ar
     8     4    10    1
     9    10    11   ar
    10    11    12   ar
    11    12    13   ar
    12    13    14   ar
    13    14    17    1
    14    17    18    1
    15    18    19    1
    16    19    20    1
    17    20    21    1
    18    20    22    1
    19    20    23    1
    20    23    24    1
    21    24    25   ar
    22    24    26   ar
    23    14    15   ar
    24    15    16    1
    25     4     5   ar
    26     5     6    1
    27     5     7   ar
    28     7    38    1
    29    38    39    1
    30    39    40   ar
    31    40    41    1
    32    40    42   ar
    33    42    43   ar
    34    43    44   ar
    35    44    45   ar
    36    45    46    1
    37    46    47    1
    38    46    48    1
    39    46    49    1
    40     7     8   ar
    41     8     9    2
    42    28    29    1
    43    29    30   ar
    44    30    31   ar
    45    31    32   ar
    46    32    33   ar
    47    33    34   ar
    48     8     1   ar
    49    34    29   ar
    50    15    10   ar
    51    45    39   ar
    52    36    37    1
@<TRIPOS>MOLECULE
*****
 49 52 0 0 0
SMALL
GASTEIGER

@<TRIPOS>ATOM
      1 N          64.6860   89.6700   13.8377 N.ar    1  UNL1       -0.2470
      2 C          63.5469   89.3447   12.9176 C.ar    1  UNL1        0.2654
      3 O          62.8027   88.0517   13.0735 O.2     1  UNL1       -0.2668
      4 C          63.1521   90.3123   11.8417 C.ar    1  UNL1        0.0703
      5 C          63.8963   91.6053   11.6859 C.ar    1  UNL1        0.0465
      6 C          63.5139   92.2224   10.8681 C.3     1  UNL1        0.0503
      7 N          65.0354   91.9306   12.6060 N.ar    1  UNL1       -0.2806
      8 C          65.4302   90.9630   13.6819 C.ar    1  UNL1        0.3338
      9 O          66.5694   91.2883   14.6021 O.2     1  UNL1       -0.2462
     10 C          62.0129   89.9870   10.9215 C.ar    1  UNL1        0.0362
     11 C          60.7508   90.7958   10.9755 C.ar    1  UNL1        0.0026
     12 C          59.6117   90.4705   10.0554 C.ar    1  UNL1        0.0033
     13 C          59.7347   89.3365    9.0813 C.ar    1  UNL1        0.0392
     14 C          60.9968   88.5277    9.0273 C.ar    1  UNL1        0.1658
     15 C          62.1360   88.8530    9.9475 C.ar    1  UNL1        0.1739
     16 F          63.3981   88.0442    9.8935 F       1  UNL1       -0.2010
     17 O          61.1199   87.3937    8.0533 O.3     1  UNL1       -0.4732
     18 C          61.2525   85.9860    8.5540 C.3     1  UNL1        0.2055
     19 C          61.3593   85.7207   10.0265 C.3     1  UNL1        0.0477
     20 C          62.5426   84.9767   10.5707 C.3     1  UNL1        0.0088
     21 C          63.0807   84.8153    9.1799 C.3     1  UNL1        0.0005
     22 C          62.0046   85.1381   11.9615 C.3     1  UNL1        0.0005
     23 C          63.7260   84.2328   11.1148 C.3     1  UNL1        0.0418
     24 C          63.7933   82.7391   10.9939 C.2     1  UNL1        0.0503
     25 O          62.8739   81.8785   11.8087 O.co2   1  UNL1       -0.5492
     26 O          64.7800   82.1062   10.0581 O.co2   1  UNL1       -0.5492
     27 C          65.0809   88.7023   14.9137 C.3     1  UNL1        0.1337
     28 C          64.0394   87.8473   15.5726 C.3     1  UNL1        0.1000
     29 C          64.0368   86.3637   15.3509 C.ar    1  UNL1       -0.0061
     30 C          62.9356   85.5217   15.9238 C.ar    1  UNL1       -0.0029
     31 C          62.9331   84.0382   15.7021 C.ar    1  UNL1       -0.0003
     32 C          64.0319   83.3967   14.9076 C.ar    1  UNL1       -0.0000
     33 C          65.1331   84.2388   14.3347 C.ar    1  UNL1       -0.0003
     34 C          65.1356   85.7223   14.5564 C.ar    1  UNL1       -0.0029
     35 C          63.0896   89.9335   16.7956 C.3     1  UNL1        0.0861
     36 N          63.0003   88.4758   16.4532 N.3     1  UNL1       -0.2924
     37 H          62.1008   88.3359   15.9932 H       1  UNL1        0.1236
     38 C          65.7796   93.2236   12.4501 C.3     1  UNL1        0.1391
     39 C          66.3950   93.5803   11.1295 C.ar    1  UNL1        0.0319
     40 C          65.7660   94.6363   10.2697 C.ar    1  UNL1        0.1379
     41 F          64.8648   95.2146   10.4912 F       1  UNL1       -0.2044
     42 C          66.3814   94.9929    8.9491 C.ar    1  UNL1        0.0294
     43 C          67.6259   94.2937    8.4883 C.ar    1  UNL1        0.0022
     44 C          68.2550   93.2378    9.3481 C.ar    1  UNL1        0.0037
     45 C          67.6395   92.8811   10.6688 C.ar    1  UNL1        0.0714
     46 C          68.2686   91.8252   11.5286 C.3     1  UNL1        0.4184
     47 F          68.8977   90.7693   12.3884 F       1  UNL1       -0.1659
     48 F          68.2016   92.7472   12.7098 F       1  UNL1       -0.1659
     49 F          68.3356   90.9032   10.3473 F       1  UNL1       -0.1659
@<TRIPOS>UNITY_ATOM_ATTR
25 1
charge -1
@<TRIPOS>BOND
     1    35    36    1
     2    36    28    1
     3    28    27    1
     4    27     1    1
     5     1     2   ar
     6     2     3    2
     7     2     4   ar
     8     4    10    1
     9    10    11   ar
    10    11    12   ar
    11    12    13   ar
    12    13    14   ar
    13    14    17    1
    14    17    18    1
    15    18    19    1
    16    19    20    1
    17    20    21    1
    18    20    22    1
    19    20    23    1
    20    23    24    1
    21    24    25   ar
    22    24    26   ar
    23    14    15   ar
    24    15    16    1
    25     4     5   ar
    26     5     6    1
    27     5     7   ar
    28     7    38    1
    29    38    39    1
    30    39    40   ar
    31    40    41    1
    32    40    42   ar
    33    42    43   ar
    34    43    44   ar
    35    44    45   ar
    36    45    46    1
    37    46    47    1
    38    46    48    1
    39    46    49    1
    40     7     8   ar
    41     8     9    2
    42    28    29    1
    43    29    30   ar
    44    30    31   ar
    45    31    32   ar
    46    32    33   ar
    47    33    34   ar
    48     8     1   ar
    49    34    29   ar
    50    15    10   ar
    51    45    39   ar
    52    36    37    1
