@<TRIPOS>MOLECULE
*****
 35 38 0 0 0
SMALL
GASTEIGER

@<TRIPOS>ATOM
      1 N          63.0328   90.8590   11.7234 N.am    1  UNL1       -0.2438
      2 C          63.5557   91.4917   10.4680 C.3     1  UNL1        0.1009
      3 C          64.7480   92.4000   10.5262 C.3     1  UNL1        0.0662
      4 C          65.4174   92.6756   11.8399 C.3     1  UNL1        0.1600
      5 O          64.8945   92.0428   13.0955 O.3     1  UNL1       -0.4374
      6 C          63.7022   91.1345   13.0372 C.2     1  UNL1        0.4051
      7 O          63.1794   90.5018   14.2927 O.2     1  UNL1       -0.2262
      8 C          66.2764   93.5040   10.9311 C.ar    1  UNL1        0.0138
      9 C          66.2389   95.0007   11.0220 C.ar    1  UNL1       -0.0010
     10 C          67.0979   95.8291   10.1132 C.ar    1  UNL1       -0.0002
     11 C          67.9943   95.1606    9.1134 C.ar    1  UNL1       -0.0000
     12 C          68.0318   93.6638    9.0224 C.ar    1  UNL1       -0.0002
     13 C          67.1728   92.8355    9.9313 C.ar    1  UNL1       -0.0010
     14 C          60.4583   90.5303   11.6057 C.3     1  UNL1        0.0265
     15 C          61.8405   89.9507   11.6652 C.3     1  UNL1        0.1011
     16 C          62.0304   88.4627   11.6664 C.ar    1  UNL1       -0.0042
     17 C          63.1334   87.8481   12.4762 C.ar    1  UNL1       -0.0026
     18 C          63.3233   86.3602   12.4774 C.ar    1  UNL1        0.0013
     19 C          62.4102   85.4869   11.6689 C.ar    1  UNL1        0.0193
     20 C          61.3073   86.1015   10.8592 C.ar    1  UNL1        0.0013
     21 C          61.1174   87.5894   10.8580 C.ar    1  UNL1       -0.0026
     22 C          62.6002   83.9989   11.6701 C.ar    1  UNL1        0.1011
     23 C          63.3352   83.3357   10.5433 C.ar    1  UNL1        0.0258
     24 C          63.5251   81.8477   10.5445 C.ar    1  UNL1        0.0638
     25 C          62.9800   81.0230   11.6727 C.ar    1  UNL1        0.2765
     26 O          63.1699   79.5351   11.6740 O.2     1  UNL1       -0.2655
     27 N          62.2449   81.6863   12.7996 N.ar    1  UNL1       -0.2146
     28 C          61.6998   80.8616   13.9277 C.3     1  UNL1        0.1571
     29 N          62.0550   83.1742   12.7983 N.ar    1  UNL1       -0.1668
     30 C          66.3852   93.2389   12.8380 C.3     1  UNL1        0.0714
     31 C          67.0318   92.3370   13.8472 C.3     1  UNL1        0.0922
     32 C          66.2457   92.9972   14.9410 C.3     1  UNL1        0.0294
     33 C          67.8178   91.6768   12.7535 C.3     1  UNL1        0.0294
     34 O          67.6783   91.4351   14.8565 O.3     1  UNL1       -0.3866
     35 H          67.3384   91.6433   15.7408 H       1  UNL1        0.2102
@<TRIPOS>BOND
     1    15    14    1
     2    15    16    1
     3    16    17   ar
     4    17    18   ar
     5    18    19   ar
     6    19    22    1
     7    22    23   ar
     8    23    24   ar
     9    24    25   ar
    10    25    26    2
    11    25    27   ar
    12    27    28    1
    13    27    29   ar
    14    19    20   ar
    15    20    21   ar
    16    15     1    1
    17     1     2    1
    18     2     3    1
    19     3     4    1
    20     4    30    1
    21    30    31    1
    22    31    32    1
    23    31    33    1
    24    31    34    1
    25     4     8    1
    26     8     9   ar
    27     9    10   ar
    28    10    11   ar
    29    11    12   ar
    30    12    13   ar
    31     4     5    1
    32     5     6    1
    33     6     7    2
    34    21    16   ar
    35     6     1   am
    36    29    22   ar
    37    13     8   ar
    38    34    35    1
@<TRIPOS>MOLECULE
*****
 35 38 0 0 0
SMALL
GASTEIGER

@<TRIPOS>ATOM
      1 N          63.4095   90.5033   11.9755 N.am    1  UNL1       -0.2438
      2 C          64.0585   90.3221   13.3156 C.3     1  UNL1        0.1009
      3 C          65.2475   91.1554   13.6919 C.3     1  UNL1        0.0662
      4 C          65.7876   92.1700   12.7281 C.3     1  UNL1        0.1600
      5 O          65.1386   92.3512   11.3879 O.3     1  UNL1       -0.4374
      6 C          63.9495   91.5179   11.0116 C.2     1  UNL1        0.4051
      7 O          63.3005   91.6990    9.6715 O.2     1  UNL1       -0.2262
      8 C          66.7390   92.3646   13.8714 C.ar    1  UNL1        0.0138
      9 C          68.2101   92.1550   13.6669 C.ar    1  UNL1       -0.0010
     10 C          69.1614   92.3497   14.8102 C.ar    1  UNL1       -0.0002
     11 C          68.6415   92.7539   16.1579 C.ar    1  UNL1       -0.0000
     12 C          67.1704   92.9635   16.3624 C.ar    1  UNL1       -0.0002
     13 C          66.2191   92.7688   15.2191 C.ar    1  UNL1       -0.0010
     14 C          60.9334   90.3333   11.2072 C.3     1  UNL1        0.0265
     15 C          62.2204   89.6699   11.5992 C.3     1  UNL1        0.1011
     16 C          62.3183   88.1731   11.6149 C.ar    1  UNL1       -0.0042
     17 C          61.5438   87.3604   10.6201 C.ar    1  UNL1       -0.0026
     18 C          61.6417   85.8637   10.6359 C.ar    1  UNL1        0.0013
     19 C          62.5142   85.1798   11.6463 C.ar    1  UNL1        0.0193
     20 C          63.2887   85.9925   12.6411 C.ar    1  UNL1        0.0013
     21 C          63.1908   87.4892   12.6253 C.ar    1  UNL1       -0.0026
     22 C          62.6121   83.6830   11.6620 C.ar    1  UNL1        0.1011
     23 C          63.2275   82.9595   10.5012 C.ar    1  UNL1        0.0258
     24 C          63.3254   81.4627   10.5169 C.ar    1  UNL1        0.0638
     25 C          62.8079   80.6896   11.6935 C.ar    1  UNL1        0.2765
     26 O          62.9058   79.1929   11.7092 O.2     1  UNL1       -0.2655
     27 N          62.1925   81.4132   12.8544 N.ar    1  UNL1       -0.2146
     28 C          61.6749   80.6401   14.0310 C.3     1  UNL1        0.1571
     29 N          62.0946   82.9099   12.8387 N.ar    1  UNL1       -0.1668
     30 C          66.6581   93.2522   12.1613 C.3     1  UNL1        0.0714
     31 C          66.5593   93.6101   10.7080 C.3     1  UNL1        0.0922
     32 C          65.7587   94.8282   11.0624 C.3     1  UNL1        0.0294
     33 C          67.3598   92.3922   10.3536 C.3     1  UNL1        0.0294
     34 O          66.4604   93.9682    9.2547 O.3     1  UNL1       -0.3866
     35 H          65.9510   94.7879    9.1576 H       1  UNL1        0.2102
@<TRIPOS>BOND
     1    15    14    1
     2    15    16    1
     3    16    17   ar
     4    17    18   ar
     5    18    19   ar
     6    19    22    1
     7    22    23   ar
     8    23    24   ar
     9    24    25   ar
    10    25    26    2
    11    25    27   ar
    12    27    28    1
    13    27    29   ar
    14    19    20   ar
    15    20    21   ar
    16    15     1    1
    17     1     2    1
    18     2     3    1
    19     3     4    1
    20     4    30    1
    21    30    31    1
    22    31    32    1
    23    31    33    1
    24    31    34    1
    25     4     8    1
    26     8     9   ar
    27     9    10   ar
    28    10    11   ar
    29    11    12   ar
    30    12    13   ar
    31     4     5    1
    32     5     6    1
    33     6     7    2
    34    21    16   ar
    35     6     1   am
    36    29    22   ar
    37    13     8   ar
    38    34    35    1
@<TRIPOS>MOLECULE
*****
 35 38 0 0 0
SMALL
GASTEIGER

@<TRIPOS>ATOM
      1 N          62.2002   87.3224   11.9698 N.am    1  UNL1       -0.2438
      2 C          61.8215   86.1654   11.0934 C.3     1  UNL1        0.1009
      3 C          62.3670   84.7978   11.3794 C.3     1  UNL1        0.0662
      4 C          63.2913   84.5870   12.5418 C.3     1  UNL1        0.1600
      5 O          63.6700   85.7439   13.4183 O.3     1  UNL1       -0.4374
      6 C          63.1245   87.1116   13.1323 C.2     1  UNL1        0.4051
      7 O          63.5032   88.2685   14.0086 O.2     1  UNL1       -0.2262
      8 C          63.2256   83.1881   12.0043 C.ar    1  UNL1        0.0138
      9 C          63.7571   82.8852   10.6347 C.ar    1  UNL1       -0.0010
     10 C          63.6914   81.4864   10.0972 C.ar    1  UNL1       -0.0002
     11 C          63.0943   80.3905   10.9293 C.ar    1  UNL1       -0.0000
     12 C          62.5629   80.6933   12.2989 C.ar    1  UNL1       -0.0002
     13 C          62.6285   82.0922   12.8365 C.ar    1  UNL1       -0.0010
     14 C          60.1725   88.9205   11.6793 C.3     1  UNL1        0.0265
     15 C          61.6547   88.6900   11.6837 C.3     1  UNL1        0.1011
     16 C          62.5914   89.8273   11.4021 C.ar    1  UNL1       -0.0042
     17 C          63.3959   90.4296   12.5155 C.ar    1  UNL1       -0.0026
     18 C          64.3326   91.5669   12.2338 C.ar    1  UNL1        0.0013
     19 C          64.4647   92.1017   10.8387 C.ar    1  UNL1        0.0193
     20 C          63.6601   91.4994    9.7252 C.ar    1  UNL1        0.0013
     21 C          62.7235   90.3622   10.0069 C.ar    1  UNL1       -0.0026
     22 C          65.4014   93.2390   10.5570 C.ar    1  UNL1        0.1011
     23 C          66.3860   93.1382    9.4300 C.ar    1  UNL1        0.0258
     24 C          67.3227   94.2755    9.1483 C.ar    1  UNL1        0.0638
     25 C          67.2747   95.5135    9.9938 C.ar    1  UNL1        0.2765
     26 O          68.2114   96.6508    9.7122 O.2     1  UNL1       -0.2655
     27 N          66.2901   95.6143   11.1209 N.ar    1  UNL1       -0.2146
     28 C          66.2421   96.8524   11.9664 C.3     1  UNL1        0.1571
     29 N          65.3534   94.4771   11.4025 N.ar    1  UNL1       -0.1668
     30 C          64.1928   83.8904   13.5176 C.3     1  UNL1        0.0714
     31 C          64.4103   84.4704   14.8837 C.3     1  UNL1        0.0922
     32 C          65.7970   84.8833   14.4876 C.3     1  UNL1        0.0294
     33 C          63.0237   84.0576   15.2798 C.3     1  UNL1        0.0294
     34 O          64.6279   85.0505   16.2497 O.3     1  UNL1       -0.3866
     35 H          65.5202   85.4272   16.3026 H       1  UNL1        0.2102
@<TRIPOS>BOND
     1    15    14    1
     2    15    16    1
     3    16    17   ar
     4    17    18   ar
     5    18    19   ar
     6    19    22    1
     7    22    23   ar
     8    23    24   ar
     9    24    25   ar
    10    25    26    2
    11    25    27   ar
    12    27    28    1
    13    27    29   ar
    14    19    20   ar
    15    20    21   ar
    16    15     1    1
    17     1     2    1
    18     2     3    1
    19     3     4    1
    20     4    30    1
    21    30    31    1
    22    31    32    1
    23    31    33    1
    24    31    34    1
    25     4     8    1
    26     8     9   ar
    27     9    10   ar
    28    10    11   ar
    29    11    12   ar
    30    12    13   ar
    31     4     5    1
    32     5     6    1
    33     6     7    2
    34    21    16   ar
    35     6     1   am
    36    29    22   ar
    37    13     8   ar
    38    34    35    1
