@<TRIPOS>MOLECULE
*****
 25 27 0 0 0
SMALL
GASTEIGER

@<TRIPOS>ATOM
      1 C          64.4519   86.8800   14.8823 C.3     1  UNL1        0.2358
      2 C          63.7992   85.6282   15.3895 C.3     1  UNL1        0.1700
      3 O          62.7460   85.7102   16.4545 O.3     1  UNL1       -0.3793
      4 H          62.6079   86.6379   16.7018 H       1  UNL1        0.2106
      5 C          64.1995   84.2946   14.8316 C.3     1  UNL1        0.1056
      6 C          62.3206   82.5359   14.4758 C.3     1  UNL1        0.0897
      7 N          63.2693   83.5545   13.9168 N.3     1  UNL1       -0.2707
      8 C          63.2877   83.8331   12.4430 C.3     1  UNL1        0.0576
      9 C          62.4900   84.9745   11.8854 C.3     1  UNL1        0.0160
     10 C          62.5084   85.2530   10.4116 C.3     1  UNL1        0.0014
     11 C          63.3245   84.3901    9.4954 C.3     1  UNL1        0.0001
     12 C          64.1222   83.2488   10.0530 C.3     1  UNL1        0.0014
     13 C          64.1038   82.9702   11.5268 C.3     1  UNL1        0.0160
     14 O          63.7796   88.2070   15.0740 O.3     1  UNL1       -0.4728
     15 C          64.0526   89.3310   14.1188 C.ar    1  UNL1        0.1387
     16 C          63.3697   89.3632   12.7837 C.ar    1  UNL1        0.0369
     17 C          63.6427   90.4871   11.8286 C.ar    1  UNL1        0.0031
     18 C          64.5985   91.5789   12.2087 C.ar    1  UNL1        0.0007
     19 C          64.8715   92.7029   11.2535 C.ar    1  UNL1        0.0067
     20 C          65.8273   93.7947   11.6336 C.ar    1  UNL1        0.0346
     21 BR         66.1002   94.9186   10.6785 Br      1  UNL1       -0.0490
     22 C          66.5102   93.7624   12.9688 C.ar    1  UNL1        0.0067
     23 C          66.2372   92.6385   13.9239 C.ar    1  UNL1        0.0006
     24 C          65.2814   91.5467   13.5438 C.ar    1  UNL1        0.0030
     25 C          65.0084   90.4228   14.4989 C.ar    1  UNL1        0.0369
@<TRIPOS>BOND
     1     6     7    1
     2     7     5    1
     3     5     2    1
     4     2     3    1
     5     2     1    1
     6     1    14    1
     7    14    15    1
     8    15    16   ar
     9    16    17   ar
    10    17    18   ar
    11    18    19   ar
    12    19    20   ar
    13    20    21    1
    14    20    22   ar
    15    22    23   ar
    16    23    24   ar
    17    24    25   ar
    18     7     8    1
    19     8     9    1
    20     9    10    1
    21    10    11    1
    22    11    12    1
    23    12    13    1
    24    25    15   ar
    25    13     8    1
    26    24    18   ar
    27     3     4    1
@<TRIPOS>MOLECULE
*****
 25 27 0 0 0
SMALL
GASTEIGER

@<TRIPOS>ATOM
      1 C          61.0060   90.3513   10.1793 C.3     1  UNL1        0.2358
      2 C          59.9969   89.6679   11.0539 C.3     1  UNL1        0.1700
      3 O          59.0819   90.4816   11.9203 O.3     1  UNL1       -0.3793
      4 H          59.2730   91.4245   11.7963 H       1  UNL1        0.2106
      5 C          59.9029   88.1709   11.0621 C.3     1  UNL1        0.1056
      6 C          59.4686   87.6491    8.5543 C.3     1  UNL1        0.0897
      7 N          60.2281   87.3923    9.8220 N.3     1  UNL1       -0.2707
      8 C          61.3130   86.3567    9.8496 C.3     1  UNL1        0.0576
      9 C          61.6763   85.6853   11.1409 C.3     1  UNL1        0.0160
     10 C          62.7611   84.6497   11.1685 C.3     1  UNL1        0.0014
     11 C          63.4826   84.2856    9.9048 C.3     1  UNL1        0.0001
     12 C          63.1193   84.9570    8.6136 C.3     1  UNL1        0.0014
     13 C          62.0345   85.9925    8.5860 C.3     1  UNL1        0.0160
     14 O          62.4437   89.9254   10.2189 O.3     1  UNL1       -0.4728
     15 C          63.3038   90.2962   11.3906 C.ar    1  UNL1        0.1387
     16 C          63.3508   89.4069   12.5976 C.ar    1  UNL1        0.0369
     17 C          64.2109   89.7777   13.7692 C.ar    1  UNL1        0.0031
     18 C          65.0239   91.0378   13.7339 C.ar    1  UNL1        0.0007
     19 C          65.8839   91.4086   14.9056 C.ar    1  UNL1        0.0067
     20 C          66.6969   92.6687   14.8702 C.ar    1  UNL1        0.0346
     21 BR         67.5570   93.0395   16.0419 Br      1  UNL1       -0.0490
     22 C          66.6498   93.5580   13.6631 C.ar    1  UNL1        0.0067
     23 C          65.7897   93.1872   12.4915 C.ar    1  UNL1        0.0006
     24 C          64.9768   91.9271   12.5269 C.ar    1  UNL1        0.0030
     25 C          64.1167   91.5563   11.3552 C.ar    1  UNL1        0.0369
@<TRIPOS>BOND
     1     6     7    1
     2     7     5    1
     3     5     2    1
     4     2     3    1
     5     2     1    1
     6     1    14    1
     7    14    15    1
     8    15    16   ar
     9    16    17   ar
    10    17    18   ar
    11    18    19   ar
    12    19    20   ar
    13    20    21    1
    14    20    22   ar
    15    22    23   ar
    16    23    24   ar
    17    24    25   ar
    18     7     8    1
    19     8     9    1
    20     9    10    1
    21    10    11    1
    22    11    12    1
    23    12    13    1
    24    25    15   ar
    25    13     8    1
    26    24    18   ar
    27     3     4    1
@<TRIPOS>MOLECULE
*****
 25 27 0 0 0
SMALL
GASTEIGER

@<TRIPOS>ATOM
      1 C          61.8485   88.5202    9.8163 C.3     1  UNL1        0.2358
      2 C          61.0043   87.4611   10.4612 C.3     1  UNL1        0.1700
      3 O          60.1522   87.8007   11.6480 O.3     1  UNL1       -0.3793
      4 H          60.2628   88.7390   11.8676 H       1  UNL1        0.2106
      5 C          61.0124   86.0625    9.9192 C.3     1  UNL1        0.1056
      6 C          62.9776   85.4410    8.3375 C.3     1  UNL1        0.0897
      7 N          62.3150   85.3581    9.6808 N.3     1  UNL1       -0.2707
      8 C          62.9551   84.5707   10.7854 C.3     1  UNL1        0.0576
      9 C          63.8356   83.4008   10.4597 C.3     1  UNL1        0.0160
     10 C          64.4757   82.6134   11.5644 C.3     1  UNL1        0.0014
     11 C          64.2353   82.9960   12.9948 C.3     1  UNL1        0.0001
     12 C          63.3548   84.1658   13.3204 C.3     1  UNL1        0.0014
     13 C          62.7147   84.9532   12.2157 C.3     1  UNL1        0.0160
     14 O          61.6892   89.9558   10.2209 O.3     1  UNL1       -0.4728
     15 C          62.8105   90.6674   10.9183 C.ar    1  UNL1        0.1387
     16 C          63.6782   91.6261   10.1582 C.ar    1  UNL1        0.0369
     17 C          64.7994   92.3376   10.8557 C.ar    1  UNL1        0.0031
     18 C          65.0530   92.0904   12.3133 C.ar    1  UNL1        0.0007
     19 C          66.1743   92.8020   13.0108 C.ar    1  UNL1        0.0067
     20 C          66.4278   92.5547   14.4683 C.ar    1  UNL1        0.0346
     21 BR         67.5491   93.2663   15.1658 Br      1  UNL1       -0.0490
     22 C          65.5601   91.5959   15.2285 C.ar    1  UNL1        0.0067
     23 C          64.4388   90.8844   14.5310 C.ar    1  UNL1        0.0006
     24 C          64.1853   91.1316   13.0734 C.ar    1  UNL1        0.0030
     25 C          63.0640   90.4201   12.3759 C.ar    1  UNL1        0.0369
@<TRIPOS>BOND
     1     6     7    1
     2     7     5    1
     3     5     2    1
     4     2     3    1
     5     2     1    1
     6     1    14    1
     7    14    15    1
     8    15    16   ar
     9    16    17   ar
    10    17    18   ar
    11    18    19   ar
    12    19    20   ar
    13    20    21    1
    14    20    22   ar
    15    22    23   ar
    16    23    24   ar
    17    24    25   ar
    18     7     8    1
    19     8     9    1
    20     9    10    1
    21    10    11    1
    22    11    12    1
    23    12    13    1
    24    25    15   ar
    25    13     8    1
    26    24    18   ar
    27     3     4    1
@<TRIPOS>MOLECULE
*****
 25 27 0 0 0
SMALL
GASTEIGER

@<TRIPOS>ATOM
      1 C          62.4083   88.0311   10.3951 C.3     1  UNL1        0.2358
      2 C          61.6802   86.9117   11.0784 C.3     1  UNL1        0.1700
      3 O          60.3924   87.1835   11.7978 O.3     1  UNL1       -0.3793
      4 H          60.1740   88.1258   11.7251 H       1  UNL1        0.2106
      5 C          62.2400   85.5206   11.0422 C.3     1  UNL1        0.1056
      6 C          63.5007   85.7846   13.2986 C.3     1  UNL1        0.0897
      7 N          62.8202   84.9131   12.2849 N.3     1  UNL1       -0.2707
      8 C          62.7201   83.4341   12.5140 C.3     1  UNL1        0.0576
      9 C          62.3194   82.9092   13.8608 C.3     1  UNL1        0.0160
     10 C          62.2192   81.4302   14.0899 C.3     1  UNL1        0.0014
     11 C          62.5197   80.4760   12.9721 C.3     1  UNL1        0.0001
     12 C          62.9204   81.0009   11.6253 C.3     1  UNL1        0.0014
     13 C          63.0205   82.4800   11.3962 C.3     1  UNL1        0.0160
     14 O          62.2657   89.4366   10.8993 O.3     1  UNL1       -0.4728
     15 C          63.2415   89.9762   11.9026 C.ar    1  UNL1        0.1387
     16 C          63.5106   89.2191   13.1692 C.ar    1  UNL1        0.0369
     17 C          64.4864   89.7587   14.1725 C.ar    1  UNL1        0.0031
     18 C          65.1930   91.0554   13.9093 C.ar    1  UNL1        0.0007
     19 C          66.1688   91.5950   14.9126 C.ar    1  UNL1        0.0067
     20 C          66.8755   92.8916   14.6493 C.ar    1  UNL1        0.0346
     21 BR         67.8512   93.4312   15.6526 Br      1  UNL1       -0.0490
     22 C          66.6062   93.6487   13.3827 C.ar    1  UNL1        0.0067
     23 C          65.6305   93.1092   12.3794 C.ar    1  UNL1        0.0006
     24 C          64.9239   91.8125   12.6427 C.ar    1  UNL1        0.0030
     25 C          63.9481   91.2729   11.6394 C.ar    1  UNL1        0.0369
@<TRIPOS>BOND
     1     6     7    1
     2     7     5    1
     3     5     2    1
     4     2     3    1
     5     2     1    1
     6     1    14    1
     7    14    15    1
     8    15    16   ar
     9    16    17   ar
    10    17    18   ar
    11    18    19   ar
    12    19    20   ar
    13    20    21    1
    14    20    22   ar
    15    22    23   ar
    16    23    24   ar
    17    24    25   ar
    18     7     8    1
    19     8     9    1
    20     9    10    1
    21    10    11    1
    22    11    12    1
    23    12    13    1
    24    25    15   ar
    25    13     8    1
    26    24    18   ar
    27     3     4    1
@<TRIPOS>MOLECULE
*****
 25 27 0 0 0
SMALL
GASTEIGER

@<TRIPOS>ATOM
      1 C          63.8997   89.2880   13.3403 C.3     1  UNL1        0.2358
      2 C          63.8977   90.7785   13.5096 C.3     1  UNL1        0.1700
      3 O          63.3263   91.3913   14.7537 O.3     1  UNL1       -0.3793
      4 H          63.0033   90.6898   15.3407 H       1  UNL1        0.2106
      5 C          64.4671   91.6561   12.4347 C.3     1  UNL1        0.1056
      6 C          66.4533   92.2818   13.9883 C.3     1  UNL1        0.0897
      7 N          65.7793   92.3502   12.6500 N.3     1  UNL1       -0.2707
      8 C          66.4176   93.1127   11.5270 C.3     1  UNL1        0.0576
      9 C          66.1921   94.5903   11.4002 C.3     1  UNL1        0.0160
     10 C          66.8304   95.3528   10.2772 C.3     1  UNL1        0.0014
     11 C          67.6942   94.6377    9.2809 C.3     1  UNL1        0.0001
     12 C          67.9197   93.1602    9.4077 C.3     1  UNL1        0.0014
     13 C          67.2814   92.3977   10.5307 C.3     1  UNL1        0.0160
     14 O          64.4127   88.4088   14.4420 O.3     1  UNL1       -0.4728
     15 C          64.0486   86.9539   14.4716 C.ar    1  UNL1        0.1387
     16 C          64.0395   86.2094   15.7737 C.ar    1  UNL1        0.0369
     17 C          63.6754   84.7546   15.8033 C.ar    1  UNL1        0.0031
     18 C          63.3204   84.0443   14.5307 C.ar    1  UNL1        0.0007
     19 C          62.9563   82.5894   14.5603 C.ar    1  UNL1        0.0067
     20 C          62.6014   81.8791   13.2877 C.ar    1  UNL1        0.0346
     21 BR         62.2373   80.4243   13.3173 Br      1  UNL1       -0.0490
     22 C          62.6105   82.6237   11.9856 C.ar    1  UNL1        0.0067
     23 C          62.9746   84.0785   11.9560 C.ar    1  UNL1        0.0006
     24 C          63.3295   84.7888   13.2286 C.ar    1  UNL1        0.0030
     25 C          63.6936   86.2436   13.1990 C.ar    1  UNL1        0.0369
@<TRIPOS>BOND
     1     6     7    1
     2     7     5    1
     3     5     2    1
     4     2     3    1
     5     2     1    1
     6     1    14    1
     7    14    15    1
     8    15    16   ar
     9    16    17   ar
    10    17    18   ar
    11    18    19   ar
    12    19    20   ar
    13    20    21    1
    14    20    22   ar
    15    22    23   ar
    16    23    24   ar
    17    24    25   ar
    18     7     8    1
    19     8     9    1
    20     9    10    1
    21    10    11    1
    22    11    12    1
    23    12    13    1
    24    25    15   ar
    25    13     8    1
    26    24    18   ar
    27     3     4    1
@<TRIPOS>MOLECULE
*****
 25 27 0 0 0
SMALL
GASTEIGER

@<TRIPOS>ATOM
      1 C          63.2595   89.3005   14.0818 C.3     1  UNL1        0.2358
      2 C          63.0977   90.0774   12.8089 C.3     1  UNL1        0.1700
      3 O          63.1931   91.5742   12.8265 O.3     1  UNL1       -0.3793
      4 H          63.3611   91.8769   13.7326 H       1  UNL1        0.2106
      5 C          62.8405   89.3574   11.5184 C.3     1  UNL1        0.1056
      6 C          60.2789   89.6937   11.7919 C.3     1  UNL1        0.0897
      7 N          61.4358   89.0208   11.1144 N.3     1  UNL1       -0.2707
      8 C          61.1878   88.0112   10.0331 C.3     1  UNL1        0.0576
      9 C          59.8955   88.0300    9.2715 C.3     1  UNL1        0.0160
     10 C          59.6476   87.0205    8.1901 C.3     1  UNL1        0.0014
     11 C          60.6918   85.9922    7.8703 C.3     1  UNL1        0.0001
     12 C          61.9839   85.9734    8.6319 C.3     1  UNL1        0.0014
     13 C          62.2319   86.9830    9.7132 C.3     1  UNL1        0.0160
     14 O          64.3634   88.2931   14.2105 O.3     1  UNL1       -0.4728
     15 C          64.0399   86.8295   14.2707 C.ar    1  UNL1        0.1387
     16 C          64.1501   86.0900   15.5710 C.ar    1  UNL1        0.0369
     17 C          63.8266   84.6265   15.6312 C.ar    1  UNL1        0.0031
     18 C          63.3929   83.9027   14.3910 C.ar    1  UNL1        0.0007
     19 C          63.0694   82.4392   14.4513 C.ar    1  UNL1        0.0067
     20 C          62.6356   81.7153   13.2112 C.ar    1  UNL1        0.0346
     21 BR         62.3121   80.2519   13.2713 Br      1  UNL1       -0.0490
     22 C          62.5254   82.4550   11.9108 C.ar    1  UNL1        0.0067
     23 C          62.8489   83.9184   11.8506 C.ar    1  UNL1        0.0006
     24 C          63.2826   84.6423   13.0908 C.ar    1  UNL1        0.0030
     25 C          63.6061   86.1057   13.0306 C.ar    1  UNL1        0.0369
@<TRIPOS>BOND
     1     6     7    1
     2     7     5    1
     3     5     2    1
     4     2     3    1
     5     2     1    1
     6     1    14    1
     7    14    15    1
     8    15    16   ar
     9    16    17   ar
    10    17    18   ar
    11    18    19   ar
    12    19    20   ar
    13    20    21    1
    14    20    22   ar
    15    22    23   ar
    16    23    24   ar
    17    24    25   ar
    18     7     8    1
    19     8     9    1
    20     9    10    1
    21    10    11    1
    22    11    12    1
    23    12    13    1
    24    25    15   ar
    25    13     8    1
    26    24    18   ar
    27     3     4    1
@<TRIPOS>MOLECULE
*****
 25 27 0 0 0
SMALL
GASTEIGER

@<TRIPOS>ATOM
      1 C          62.5705   90.0695   12.3696 C.3     1  UNL1        0.2358
      2 C          63.3423   90.0234   13.6550 C.3     1  UNL1        0.1700
      3 O          63.1644   91.1080   14.6759 O.3     1  UNL1       -0.3793
      4 H          62.5202   91.7560   14.3503 H       1  UNL1        0.2106
      5 C          64.2919   88.8929   13.9196 C.3     1  UNL1        0.1056
      6 C          63.4194   88.0642   16.2222 C.3     1  UNL1        0.0897
      7 N          63.8865   87.7698   14.8274 N.3     1  UNL1       -0.2707
      8 C          63.9481   86.3523   14.3406 C.3     1  UNL1        0.0576
      9 C          63.2793   85.9718   13.0530 C.3     1  UNL1        0.0160
     10 C          63.3410   84.5543   12.5662 C.3     1  UNL1        0.0014
     11 C          64.0714   83.5174   13.3671 C.3     1  UNL1        0.0001
     12 C          64.7401   83.8979   14.6547 C.3     1  UNL1        0.0014
     13 C          64.6785   85.3154   15.1414 C.3     1  UNL1        0.0160
     14 O          61.3152   89.2623   12.2191 O.3     1  UNL1       -0.4728
     15 C          61.1182   88.4008   11.0070 C.ar    1  UNL1        0.1387
     16 C          59.8027   88.4095   10.2865 C.ar    1  UNL1        0.0369
     17 C          59.6058   87.5481    9.0744 C.ar    1  UNL1        0.0031
     18 C          60.7244   86.6779    8.5829 C.ar    1  UNL1        0.0007
     19 C          60.5274   85.8165    7.3708 C.ar    1  UNL1        0.0067
     20 C          61.6460   84.9463    6.8793 C.ar    1  UNL1        0.0346
     21 BR         61.4490   84.0849    5.6673 Br      1  UNL1       -0.0490
     22 C          62.9616   84.9376    7.6000 C.ar    1  UNL1        0.0067
     23 C          63.1585   85.7991    8.8120 C.ar    1  UNL1        0.0006
     24 C          62.0399   86.6692    9.3035 C.ar    1  UNL1        0.0030
     25 C          62.2368   87.5307   10.5155 C.ar    1  UNL1        0.0369
@<TRIPOS>BOND
     1     6     7    1
     2     7     5    1
     3     5     2    1
     4     2     3    1
     5     2     1    1
     6     1    14    1
     7    14    15    1
     8    15    16   ar
     9    16    17   ar
    10    17    18   ar
    11    18    19   ar
    12    19    20   ar
    13    20    21    1
    14    20    22   ar
    15    22    23   ar
    16    23    24   ar
    17    24    25   ar
    18     7     8    1
    19     8     9    1
    20     9    10    1
    21    10    11    1
    22    11    12    1
    23    12    13    1
    24    25    15   ar
    25    13     8    1
    26    24    18   ar
    27     3     4    1
@<TRIPOS>MOLECULE
*****
 25 27 0 0 0
SMALL
GASTEIGER

@<TRIPOS>ATOM
      1 C          61.6160   89.9951   10.6342 C.3     1  UNL1        0.2358
      2 C          60.6449   89.2306    9.7841 C.3     1  UNL1        0.1700
      3 O          60.1940   89.7940    8.4691 O.3     1  UNL1       -0.3793
      4 H          60.6218   90.6519    8.3212 H       1  UNL1        0.2106
      5 C          60.1247   87.9028   10.2491 C.3     1  UNL1        0.1056
      6 C          61.5753   86.1931   11.5617 C.3     1  UNL1        0.0897
      7 N          61.0288   86.7060   10.2623 N.3     1  UNL1       -0.2707
      8 C          61.3865   86.0221    8.9761 C.3     1  UNL1        0.0576
      9 C          62.7607   85.4509    8.7873 C.3     1  UNL1        0.0160
     10 C          63.1184   84.7670    7.5011 C.3     1  UNL1        0.0014
     11 C          62.1020   84.6543    6.4037 C.3     1  UNL1        0.0001
     12 C          60.7279   85.2255    6.5925 C.3     1  UNL1        0.0014
     13 C          60.3702   85.9094    7.8787 C.3     1  UNL1        0.0160
     14 O          61.8184   89.6126   12.0704 O.3     1  UNL1       -0.4728
     15 C          63.0577   90.0479   12.7950 C.ar    1  UNL1        0.1387
     16 C          63.6007   89.2158   13.9187 C.ar    1  UNL1        0.0369
     17 C          64.8399   89.6511   14.6432 C.ar    1  UNL1        0.0031
     18 C          65.5361   90.9183   14.2440 C.ar    1  UNL1        0.0007
     19 C          66.7753   91.3535   14.9685 C.ar    1  UNL1        0.0067
     20 C          67.4715   92.6208   14.5693 C.ar    1  UNL1        0.0346
     21 BR         68.7107   93.0560   15.2938 Br      1  UNL1       -0.0490
     22 C          66.9284   93.4528   13.4455 C.ar    1  UNL1        0.0067
     23 C          65.6892   93.0176   12.7210 C.ar    1  UNL1        0.0006
     24 C          64.9930   91.7504   13.1202 C.ar    1  UNL1        0.0030
     25 C          63.7539   91.3151   12.3957 C.ar    1  UNL1        0.0369
@<TRIPOS>BOND
     1     6     7    1
     2     7     5    1
     3     5     2    1
     4     2     3    1
     5     2     1    1
     6     1    14    1
     7    14    15    1
     8    15    16   ar
     9    16    17   ar
    10    17    18   ar
    11    18    19   ar
    12    19    20   ar
    13    20    21    1
    14    20    22   ar
    15    22    23   ar
    16    23    24   ar
    17    24    25   ar
    18     7     8    1
    19     8     9    1
    20     9    10    1
    21    10    11    1
    22    11    12    1
    23    12    13    1
    24    25    15   ar
    25    13     8    1
    26    24    18   ar
    27     3     4    1
@<TRIPOS>MOLECULE
*****
 25 27 0 0 0
SMALL
GASTEIGER

@<TRIPOS>ATOM
      1 C          64.1904   87.7217   15.1748 C.3     1  UNL1        0.2358
      2 C          63.9593   86.6850   14.1156 C.3     1  UNL1        0.1700
      3 O          63.3064   87.0683   12.8206 O.3     1  UNL1       -0.3793
      4 H          63.0986   88.0157   12.8314 H       1  UNL1        0.2106
      5 C          64.3811   85.2650   14.3513 C.3     1  UNL1        0.1056
      6 C          62.3718   83.9850   15.3880 C.3     1  UNL1        0.0897
      7 N          63.3687   84.1604   14.2810 N.3     1  UNL1       -0.2707
      8 C          63.3531   83.2311   13.1036 C.3     1  UNL1        0.0576
      9 C          62.8123   81.8400   13.2532 C.3     1  UNL1        0.0160
     10 C          62.7967   80.9108   12.0758 C.3     1  UNL1        0.0014
     11 C          63.3220   81.3727   10.7488 C.3     1  UNL1        0.0001
     12 C          63.8629   82.7637   10.5993 C.3     1  UNL1        0.0014
     13 C          63.8784   83.6930   11.7767 C.3     1  UNL1        0.0160
     14 O          63.5039   89.0523   15.0843 O.3     1  UNL1       -0.4728
     15 C          64.2049   90.2162   14.4486 C.ar    1  UNL1        0.1387
     16 C          65.1203   91.0782   15.2665 C.ar    1  UNL1        0.0369
     17 C          65.8213   92.2420   14.6308 C.ar    1  UNL1        0.0031
     18 C          65.6068   92.5439   13.1772 C.ar    1  UNL1        0.0007
     19 C          66.3078   93.7078   12.5415 C.ar    1  UNL1        0.0067
     20 C          66.0933   94.0097   11.0880 C.ar    1  UNL1        0.0346
     21 BR         66.7943   95.1735   10.4523 Br      1  UNL1       -0.0490
     22 C          65.1779   93.1476   10.2701 C.ar    1  UNL1        0.0067
     23 C          64.4769   91.9838   10.9057 C.ar    1  UNL1        0.0006
     24 C          64.6914   91.6819   12.3593 C.ar    1  UNL1        0.0030
     25 C          63.9905   90.5181   12.9950 C.ar    1  UNL1        0.0369
@<TRIPOS>BOND
     1     6     7    1
     2     7     5    1
     3     5     2    1
     4     2     3    1
     5     2     1    1
     6     1    14    1
     7    14    15    1
     8    15    16   ar
     9    16    17   ar
    10    17    18   ar
    11    18    19   ar
    12    19    20   ar
    13    20    21    1
    14    20    22   ar
    15    22    23   ar
    16    23    24   ar
    17    24    25   ar
    18     7     8    1
    19     8     9    1
    20     9    10    1
    21    10    11    1
    22    11    12    1
    23    12    13    1
    24    25    15   ar
    25    13     8    1
    26    24    18   ar
    27     3     4    1
