@<TRIPOS>MOLECULE
*****
 30 32 0 0 0
SMALL
GASTEIGER

@<TRIPOS>ATOM
      1 C          65.1953   91.9421   12.2189 C.ar    1  UNL1       -0.0004
      2 C          64.9347   91.0471   13.3940 C.ar    1  UNL1       -0.0024
      3 C          63.8317   90.0324   13.3337 C.ar    1  UNL1       -0.0002
      4 C          62.9893   89.9128   12.0984 C.ar    1  UNL1        0.0030
      5 C          61.8862   88.8980   12.0382 C.ar    1  UNL1        0.0369
      6 C          61.0438   88.7784   10.8029 C.ar    1  UNL1        0.1386
      7 C          61.3045   89.6735    9.6277 C.ar    1  UNL1        0.0369
      8 C          62.4075   90.6882    9.6879 C.ar    1  UNL1        0.0031
      9 C          63.2499   90.8078   10.9233 C.ar    1  UNL1       -0.0001
     10 C          64.3530   91.8225   10.9835 C.ar    1  UNL1       -0.0024
     11 C          66.2984   92.9569   12.2791 C.3     1  UNL1        0.1240
     12 N          67.1812   93.0342   13.4894 N.ar    1  UNL1       -0.3045
     13 C          66.9380   93.8778   14.7056 C.ar    1  UNL1        0.0983
     14 C          68.0686   93.6464   15.6638 C.ar    1  UNL1        0.1193
     15 N          69.0105   92.6598   15.0399 N.ar    1  UNL1       -0.2223
     16 C          68.4620   92.2814   13.6960 C.ar    1  UNL1        0.1788
     17 C          66.5187   93.8943   11.1290 C.3     1  UNL1        0.0826
     18 N          67.5294   93.5603   10.0721 N.3     1  UNL1       -0.2696
     19 C          67.9458   94.6022    9.0765 C.3     1  UNL1        0.0897
     20 C          68.1237   92.1844   10.0108 C.3     1  UNL1        0.0897
     21 C          66.2053   96.3990   11.7441 C.3     1  UNL1        0.0015
     22 C          65.7284   95.1658   11.0358 C.3     1  UNL1        0.0182
     23 O          59.9408   87.7637   10.7426 O.3     1  UNL1       -0.4751
     24 C          59.4746   87.2404    9.4163 C.3     1  UNL1        0.2103
     25 C          60.3930   86.4047    8.5750 C.3     1  UNL1        0.0724
     26 C          59.6678   86.8508    7.3401 C.3     1  UNL1        0.0093
     27 C          61.1183   85.9586    9.8098 C.3     1  UNL1        0.0093
     28 C          61.3115   85.5689    7.7336 C.2     1  UNL1        0.0532
     29 O          60.7760   84.8375    6.5384 O.co2   1  UNL1       -0.5491
     30 O          62.7654   85.4645    8.0874 O.co2   1  UNL1       -0.5491
@<TRIPOS>UNITY_ATOM_ATTR
29 1
charge -1
@<TRIPOS>BOND
     1    21    22    1
     2    17    22    1
     3    17    11    1
     4    11     1    1
     5     1     2   ar
     6     2     3   ar
     7     3     4   ar
     8     4     5   ar
     9     5     6   ar
    10     6    23    1
    11    23    24    1
    12    24    25    1
    13    25    26    1
    14    25    27    1
    15    25    28    1
    16    28    29   ar
    17    28    30   ar
    18     6     7   ar
    19     7     8   ar
    20     8     9   ar
    21     9    10   ar
    22    11    12    1
    23    12    13   ar
    24    13    14   ar
    25    14    15   ar
    26    15    16   ar
    27    17    18    1
    28    18    19    1
    29    18    20    1
    30    10     1   ar
    31    16    12   ar
    32     9     4   ar
@<TRIPOS>MOLECULE
*****
 30 32 0 0 0
SMALL
GASTEIGER

@<TRIPOS>ATOM
      1 C          62.4116   88.2483   10.4720 C.ar    1  UNL1       -0.0004
      2 C          62.4126   89.6783   10.0192 C.ar    1  UNL1       -0.0024
      3 C          62.9204   90.7539   10.9330 C.ar    1  UNL1       -0.0002
      4 C          63.4271   90.3996   12.2996 C.ar    1  UNL1        0.0030
      5 C          63.9349   91.4754   13.2134 C.ar    1  UNL1        0.0369
      6 C          64.4416   91.1211   14.5801 C.ar    1  UNL1        0.1386
      7 C          64.4405   89.6910   15.0329 C.ar    1  UNL1        0.0369
      8 C          63.9327   88.6153   14.1191 C.ar    1  UNL1        0.0031
      9 C          63.4260   88.9696   12.7525 C.ar    1  UNL1       -0.0001
     10 C          62.9182   87.8940   11.8387 C.ar    1  UNL1       -0.0024
     11 C          61.9038   87.1726    9.5582 C.3     1  UNL1        0.1240
     12 N          60.6495   87.3923    8.7654 N.ar    1  UNL1       -0.3045
     13 C          60.1385   88.7134    8.2718 C.ar    1  UNL1        0.0983
     14 C          58.8592   88.4671    7.5283 C.ar    1  UNL1        0.1193
     15 N          58.5795   86.9938    7.5624 N.ar    1  UNL1       -0.2223
     16 C          59.6860   86.3295    8.3269 C.ar    1  UNL1        0.1788
     17 C          62.6502   85.8772    9.4372 C.3     1  UNL1        0.0826
     18 N          62.6941   84.9257   10.5961 N.3     1  UNL1       -0.2696
     19 C          61.7992   85.1441   11.7800 C.3     1  UNL1        0.0897
     20 C          63.6327   83.7560   10.5710 C.3     1  UNL1        0.0897
     21 C          62.6226   84.7927    7.0764 C.3     1  UNL1        0.0015
     22 C          63.3529   85.5331    8.1574 C.3     1  UNL1        0.0182
     23 O          64.9493   92.1967   15.4939 O.3     1  UNL1       -0.4751
     24 C          66.3532   92.7045   15.3472 C.3     1  UNL1        0.2103
     25 C          67.0755   92.5461   14.0422 C.3     1  UNL1        0.0724
     26 C          67.7077   91.2824   14.5455 C.3     1  UNL1        0.0093
     27 C          66.4434   93.8099   13.5390 C.3     1  UNL1        0.0093
     28 C          67.7979   92.3878   12.7372 C.2     1  UNL1        0.0532
     29 O          67.2083   92.9552   11.4800 O.co2   1  UNL1       -0.5491
     30 O          69.1098   91.6621   12.6894 O.co2   1  UNL1       -0.5491
@<TRIPOS>UNITY_ATOM_ATTR
29 1
charge -1
@<TRIPOS>BOND
     1    21    22    1
     2    17    22    1
     3    17    11    1
     4    11     1    1
     5     1     2   ar
     6     2     3   ar
     7     3     4   ar
     8     4     5   ar
     9     5     6   ar
    10     6    23    1
    11    23    24    1
    12    24    25    1
    13    25    26    1
    14    25    27    1
    15    25    28    1
    16    28    29   ar
    17    28    30   ar
    18     6     7   ar
    19     7     8   ar
    20     8     9   ar
    21     9    10   ar
    22    11    12    1
    23    12    13   ar
    24    13    14   ar
    25    14    15   ar
    26    15    16   ar
    27    17    18    1
    28    18    19    1
    29    18    20    1
    30    10     1   ar
    31    16    12   ar
    32     9     4   ar
@<TRIPOS>MOLECULE
*****
 30 32 0 0 0
SMALL
GASTEIGER

@<TRIPOS>ATOM
      1 C          65.2078   92.3260   11.6710 C.ar    1  UNL1       -0.0004
      2 C          64.4556   92.5676   10.3960 C.ar    1  UNL1       -0.0024
      3 C          63.3932   91.6037    9.9578 C.ar    1  UNL1       -0.0002
      4 C          63.0830   90.3981   10.7946 C.ar    1  UNL1        0.0030
      5 C          62.0205   89.4341   10.3564 C.ar    1  UNL1        0.0369
      6 C          61.7103   88.2285   11.1932 C.ar    1  UNL1        0.1386
      7 C          62.4626   87.9869   12.4683 C.ar    1  UNL1        0.0369
      8 C          63.5250   88.9508   12.9065 C.ar    1  UNL1        0.0031
      9 C          63.8352   90.1564   12.0697 C.ar    1  UNL1       -0.0001
     10 C          64.8976   91.1204   12.5078 C.ar    1  UNL1       -0.0024
     11 C          66.2702   93.2900   12.1092 C.3     1  UNL1        0.1240
     12 N          66.9482   93.1072   13.4348 N.ar    1  UNL1       -0.3045
     13 C          68.0764   92.1624   13.7252 C.ar    1  UNL1        0.0983
     14 C          68.4424   92.3085   15.1726 C.ar    1  UNL1        0.1193
     15 N          67.5403   93.3435   15.7766 N.ar    1  UNL1       -0.2223
     16 C          66.6168   93.8371   14.7026 C.ar    1  UNL1        0.1788
     17 C          66.6547   94.4366   11.2220 C.3     1  UNL1        0.0826
     18 N          67.5113   94.1961   10.0143 N.3     1  UNL1       -0.2696
     19 C          68.1819   92.8680    9.8230 C.3     1  UNL1        0.0897
     20 C          67.6972   95.2835    8.9980 C.3     1  UNL1        0.0897
     21 C          65.1930   96.5054   10.6446 C.3     1  UNL1        0.0015
     22 C          66.1827   95.8240   11.5423 C.3     1  UNL1        0.0182
     23 O          60.6479   87.2645   10.7550 O.3     1  UNL1       -0.4751
     24 C          60.2001   87.2417    9.3236 C.3     1  UNL1        0.2103
     25 C          60.7963   86.2521    8.3669 C.3     1  UNL1        0.0724
     26 C          62.0000   86.1214    9.2523 C.3     1  UNL1        0.0093
     27 C          59.5926   86.3828    7.4815 C.3     1  UNL1        0.0093
     28 C          61.3925   85.2625    7.4103 C.2     1  UNL1        0.0532
     29 O          60.5351   84.6294    6.3548 O.co2   1  UNL1       -0.5491
     30 O          62.8462   84.9060    7.5091 O.co2   1  UNL1       -0.5491
@<TRIPOS>UNITY_ATOM_ATTR
29 1
charge -1
@<TRIPOS>BOND
     1    21    22    1
     2    17    22    1
     3    17    11    1
     4    11     1    1
     5     1     2   ar
     6     2     3   ar
     7     3     4   ar
     8     4     5   ar
     9     5     6   ar
    10     6    23    1
    11    23    24    1
    12    24    25    1
    13    25    26    1
    14    25    27    1
    15    25    28    1
    16    28    29   ar
    17    28    30   ar
    18     6     7   ar
    19     7     8   ar
    20     8     9   ar
    21     9    10   ar
    22    11    12    1
    23    12    13   ar
    24    13    14   ar
    25    14    15   ar
    26    15    16   ar
    27    17    18    1
    28    18    19    1
    29    18    20    1
    30    10     1   ar
    31    16    12   ar
    32     9     4   ar
@<TRIPOS>MOLECULE
*****
 30 32 0 0 0
SMALL
GASTEIGER

@<TRIPOS>ATOM
      1 C          62.3924   86.0186   11.6555 C.ar    1  UNL1       -0.0004
      2 C          62.7979   87.4388   11.9175 C.ar    1  UNL1       -0.0024
      3 C          62.2404   88.5459   11.0730 C.ar    1  UNL1       -0.0002
      4 C          61.2773   88.2330    9.9664 C.ar    1  UNL1        0.0030
      5 C          60.7197   89.3403    9.1219 C.ar    1  UNL1        0.0369
      6 C          59.7566   89.0273    8.0153 C.ar    1  UNL1        0.1386
      7 C          59.3510   87.6071    7.7533 C.ar    1  UNL1        0.0369
      8 C          59.9086   86.4999    8.5979 C.ar    1  UNL1        0.0031
      9 C          60.8717   86.8129    9.7044 C.ar    1  UNL1       -0.0001
     10 C          61.4292   85.7057   10.5489 C.ar    1  UNL1       -0.0024
     11 C          62.9499   84.9114   12.5000 C.3     1  UNL1        0.1240
     12 N          63.0618   85.0849   13.9858 N.ar    1  UNL1       -0.3045
     13 C          64.1988   85.7383   14.7140 C.ar    1  UNL1        0.0983
     14 C          63.8961   85.6928   16.1824 C.ar    1  UNL1        0.1193
     15 N          62.5720   85.0111   16.3618 N.ar    1  UNL1       -0.2223
     16 C          62.0564   84.6355   15.0042 C.ar    1  UNL1        0.1788
     17 C          63.3955   83.6306   11.8589 C.3     1  UNL1        0.0826
     18 N          63.3120   82.3415   12.6212 N.3     1  UNL1       -0.2696
     19 C          64.5076   81.8359   13.3728 C.3     1  UNL1        0.0897
     20 C          62.0329   81.5581   12.6319 C.3     1  UNL1        0.0897
     21 C          64.3811   82.3601    9.8182 C.3     1  UNL1        0.0015
     22 C          63.9246   83.6390   10.4553 C.3     1  UNL1        0.0182
     23 O          59.1991   90.1345    7.1708 O.3     1  UNL1       -0.4751
     24 C          59.2425   90.0314    5.6749 C.3     1  UNL1        0.2103
     25 C          59.3853   91.2704    4.8416 C.3     1  UNL1        0.0724
     26 C          60.8606   91.0244    4.7288 C.3     1  UNL1        0.0093
     27 C          57.9099   91.5164    4.9545 C.3     1  UNL1        0.0093
     28 C          59.5281   92.5094    4.0083 C.2     1  UNL1        0.0532
     29 O          59.9145   92.4008    2.5630 O.co2   1  UNL1       -0.5491
     30 O          59.2846   93.8571    4.6203 O.co2   1  UNL1       -0.5491
@<TRIPOS>UNITY_ATOM_ATTR
29 1
charge -1
@<TRIPOS>BOND
     1    21    22    1
     2    17    22    1
     3    17    11    1
     4    11     1    1
     5     1     2   ar
     6     2     3   ar
     7     3     4   ar
     8     4     5   ar
     9     5     6   ar
    10     6    23    1
    11    23    24    1
    12    24    25    1
    13    25    26    1
    14    25    27    1
    15    25    28    1
    16    28    29   ar
    17    28    30   ar
    18     6     7   ar
    19     7     8   ar
    20     8     9   ar
    21     9    10   ar
    22    11    12    1
    23    12    13   ar
    24    13    14   ar
    25    14    15   ar
    26    15    16   ar
    27    17    18    1
    28    18    19    1
    29    18    20    1
    30    10     1   ar
    31    16    12   ar
    32     9     4   ar
@<TRIPOS>MOLECULE
*****
 30 32 0 0 0
SMALL
GASTEIGER

@<TRIPOS>ATOM
      1 C          63.5325   85.6992   13.0101 C.ar    1  UNL1       -0.0004
      2 C          64.2377   85.6569   14.3333 C.ar    1  UNL1       -0.0024
      3 C          64.6100   86.9342   15.0258 C.ar    1  UNL1       -0.0002
      4 C          64.2771   88.2539   14.3952 C.ar    1  UNL1        0.0030
      5 C          64.6495   89.5313   15.0879 C.ar    1  UNL1        0.0369
      6 C          64.3166   90.8509   14.4573 C.ar    1  UNL1        0.1386
      7 C          63.6114   90.8932   13.1341 C.ar    1  UNL1        0.0369
      8 C          63.2390   89.6159   12.4415 C.ar    1  UNL1        0.0031
      9 C          63.5719   88.2962   13.0721 C.ar    1  UNL1       -0.0001
     10 C          63.1996   87.0189   12.3795 C.ar    1  UNL1       -0.0024
     11 C          63.1601   84.4218   12.3174 C.3     1  UNL1        0.1240
     12 N          62.5915   83.2794   13.1058 N.ar    1  UNL1       -0.3045
     13 C          62.1522   81.9570   12.5504 C.ar    1  UNL1        0.0983
     14 C          61.6516   81.1191   13.6893 C.ar    1  UNL1        0.1193
     15 N          61.7814   81.9235   14.9487 N.ar    1  UNL1       -0.2223
     16 C          62.3623   83.2587   14.5880 C.ar    1  UNL1        0.1788
     17 C          63.3564   84.2869   10.8365 C.3     1  UNL1        0.0826
     18 N          62.5351   85.1143    9.8926 N.3     1  UNL1       -0.2696
     19 C          63.0087   85.3413    8.4875 C.3     1  UNL1        0.0897
     20 C          61.2402   85.7147   10.3538 C.3     1  UNL1        0.0897
     21 C          64.0104   81.8832   10.0984 C.3     1  UNL1        0.0015
     22 C          64.3739   83.3246   10.2993 C.3     1  UNL1        0.0182
     23 O          64.6890   92.1283   15.1499 O.3     1  UNL1       -0.4751
     24 C          66.1207   92.5747   15.1812 C.3     1  UNL1        0.2103
     25 C          66.9757   92.4388   13.9563 C.3     1  UNL1        0.0724
     26 C          66.1444   93.4758   13.2610 C.3     1  UNL1        0.0093
     27 C          67.8070   91.4018   14.6516 C.3     1  UNL1        0.0093
     28 C          67.8307   92.3029   12.7314 C.2     1  UNL1        0.0532
     29 O          67.3145   92.7661   11.4013 O.co2   1  UNL1       -0.5491
     30 O          69.2018   91.7039   12.8365 O.co2   1  UNL1       -0.5491
@<TRIPOS>UNITY_ATOM_ATTR
29 1
charge -1
@<TRIPOS>BOND
     1    21    22    1
     2    17    22    1
     3    17    11    1
     4    11     1    1
     5     1     2   ar
     6     2     3   ar
     7     3     4   ar
     8     4     5   ar
     9     5     6   ar
    10     6    23    1
    11    23    24    1
    12    24    25    1
    13    25    26    1
    14    25    27    1
    15    25    28    1
    16    28    29   ar
    17    28    30   ar
    18     6     7   ar
    19     7     8   ar
    20     8     9   ar
    21     9    10   ar
    22    11    12    1
    23    12    13   ar
    24    13    14   ar
    25    14    15   ar
    26    15    16   ar
    27    17    18    1
    28    18    19    1
    29    18    20    1
    30    10     1   ar
    31    16    12   ar
    32     9     4   ar
@<TRIPOS>MOLECULE
*****
 30 32 0 0 0
SMALL
GASTEIGER

@<TRIPOS>ATOM
      1 C          63.2467   86.3493   12.5726 C.ar    1  UNL1       -0.0004
      2 C          63.9461   86.0938   13.8747 C.ar    1  UNL1       -0.0024
      3 C          64.4361   87.2455   14.7013 C.ar    1  UNL1       -0.0002
      4 C          64.2268   88.6526   14.2259 C.ar    1  UNL1        0.0030
      5 C          64.7169   89.8044   15.0527 C.ar    1  UNL1        0.0369
      6 C          64.5076   91.2115   14.5772 C.ar    1  UNL1        0.1386
      7 C          63.8081   91.4670   13.2750 C.ar    1  UNL1        0.0369
      8 C          63.3181   90.3153   12.4484 C.ar    1  UNL1        0.0031
      9 C          63.5274   88.9081   12.9238 C.ar    1  UNL1       -0.0001
     10 C          63.0373   87.7565   12.0971 C.ar    1  UNL1       -0.0024
     11 C          62.7566   85.1976   11.7458 C.3     1  UNL1        0.1240
     12 N          62.2506   85.4353   10.3539 N.ar    1  UNL1       -0.3045
     13 C          60.9287   86.0424    9.9879 C.ar    1  UNL1        0.0983
     14 C          60.8388   86.0899    8.4914 C.ar    1  UNL1        0.1193
     15 N          62.1052   85.5121    7.9324 N.ar    1  UNL1       -0.2223
     16 C          62.9777   85.1075    9.0835 C.ar    1  UNL1        0.1788
     17 C          62.7724   83.8083   12.3111 C.3     1  UNL1        0.0826
     18 N          63.4493   82.7005   11.5596 N.3     1  UNL1       -0.2696
     19 C          62.7773   81.3663   11.4239 C.3     1  UNL1        0.0897
     20 C          64.7982   82.9269   10.9438 C.3     1  UNL1        0.0897
     21 C          62.8695   82.8192   14.7116 C.3     1  UNL1        0.0015
     22 C          62.1113   83.5266   13.6278 C.3     1  UNL1        0.0182
     23 O          64.9976   92.3632   15.4039 O.3     1  UNL1       -0.4751
     24 C          66.3785   92.9077   15.1876 C.3     1  UNL1        0.2103
     25 C          67.0991   92.6352   13.9006 C.3     1  UNL1        0.0724
     26 C          67.8021   91.4746   14.5399 C.3     1  UNL1        0.0093
     27 C          66.3961   93.7959   13.2613 C.3     1  UNL1        0.0093
     28 C          67.8197   92.3628   12.6136 C.2     1  UNL1        0.0532
     29 O          67.2858   92.9128   11.3241 O.co2   1  UNL1       -0.5491
     30 O          69.0741   91.5404   12.6159 O.co2   1  UNL1       -0.5491
@<TRIPOS>UNITY_ATOM_ATTR
29 1
charge -1
@<TRIPOS>BOND
     1    21    22    1
     2    17    22    1
     3    17    11    1
     4    11     1    1
     5     1     2   ar
     6     2     3   ar
     7     3     4   ar
     8     4     5   ar
     9     5     6   ar
    10     6    23    1
    11    23    24    1
    12    24    25    1
    13    25    26    1
    14    25    27    1
    15    25    28    1
    16    28    29   ar
    17    28    30   ar
    18     6     7   ar
    19     7     8   ar
    20     8     9   ar
    21     9    10   ar
    22    11    12    1
    23    12    13   ar
    24    13    14   ar
    25    14    15   ar
    26    15    16   ar
    27    17    18    1
    28    18    19    1
    29    18    20    1
    30    10     1   ar
    31    16    12   ar
    32     9     4   ar
@<TRIPOS>MOLECULE
*****
 30 32 0 0 0
SMALL
GASTEIGER

@<TRIPOS>ATOM
      1 C          62.4092   87.9297   10.8874 C.ar    1  UNL1       -0.0004
      2 C          62.3657   89.2385   10.1558 C.ar    1  UNL1       -0.0024
      3 C          62.9595   90.4665   10.7798 C.ar    1  UNL1       -0.0002
      4 C          63.5966   90.3858   12.1353 C.ar    1  UNL1        0.0030
      5 C          64.1904   91.6140   12.7593 C.ar    1  UNL1        0.0369
      6 C          64.8275   91.5333   14.1148 C.ar    1  UNL1        0.1386
      7 C          64.8710   90.2245   14.8464 C.ar    1  UNL1        0.0369
      8 C          64.2773   88.9964   14.2225 C.ar    1  UNL1        0.0031
      9 C          63.6401   89.0771   12.8669 C.ar    1  UNL1       -0.0001
     10 C          63.0464   87.8490   12.2430 C.ar    1  UNL1       -0.0024
     11 C          61.8155   86.7016   10.2635 C.3     1  UNL1        0.1240
     12 N          60.6504   86.8247    9.3268 N.ar    1  UNL1       -0.3045
     13 C          60.4253   86.0099    8.0877 C.ar    1  UNL1        0.0983
     14 C          59.1416   86.4658    7.4598 C.ar    1  UNL1        0.1193
     15 N          58.5733   87.5625    8.3109 N.ar    1  UNL1       -0.2223
     16 C          59.5057   87.7843    9.4648 C.ar    1  UNL1        0.1788
     17 C          62.3868   85.3504   10.5763 C.3     1  UNL1        0.0826
     18 N          63.2444   84.6467    9.5666 N.3     1  UNL1       -0.2696
     19 C          63.3936   85.2120    8.1851 C.3     1  UNL1        0.0897
     20 C          63.9527   83.3779    9.9383 C.3     1  UNL1        0.0897
     21 C          63.1817   84.6012   12.9336 C.3     1  UNL1        0.0015
     22 C          62.1007   84.7029   11.8987 C.3     1  UNL1        0.0182
     23 O          65.4213   92.7613   14.7388 O.3     1  UNL1       -0.4751
     24 C          66.5405   93.4857   14.0512 C.3     1  UNL1        0.2103
     25 C          66.9449   93.0942   12.6608 C.3     1  UNL1        0.0724
     26 C          67.7275   91.9401   13.2134 C.3     1  UNL1        0.0093
     27 C          66.1622   94.2483   12.1082 C.3     1  UNL1        0.0093
     28 C          67.3493   92.7027   11.2705 C.2     1  UNL1        0.0532
     29 O          66.4459   93.0083   10.1125 O.co2   1  UNL1       -0.5491
     30 O          68.6569   92.0057   11.0379 O.co2   1  UNL1       -0.5491
@<TRIPOS>UNITY_ATOM_ATTR
29 1
charge -1
@<TRIPOS>BOND
     1    21    22    1
     2    17    22    1
     3    17    11    1
     4    11     1    1
     5     1     2   ar
     6     2     3   ar
     7     3     4   ar
     8     4     5   ar
     9     5     6   ar
    10     6    23    1
    11    23    24    1
    12    24    25    1
    13    25    26    1
    14    25    27    1
    15    25    28    1
    16    28    29   ar
    17    28    30   ar
    18     6     7   ar
    19     7     8   ar
    20     8     9   ar
    21     9    10   ar
    22    11    12    1
    23    12    13   ar
    24    13    14   ar
    25    14    15   ar
    26    15    16   ar
    27    17    18    1
    28    18    19    1
    29    18    20    1
    30    10     1   ar
    31    16    12   ar
    32     9     4   ar
@<TRIPOS>MOLECULE
*****
 30 32 0 0 0
SMALL
GASTEIGER

@<TRIPOS>ATOM
      1 C          65.3360   91.8203   12.6075 C.ar    1  UNL1       -0.0004
      2 C          65.0630   90.8233   13.6944 C.ar    1  UNL1       -0.0024
      3 C          63.9501   89.8298   13.5384 C.ar    1  UNL1       -0.0002
      4 C          63.1103   89.8332   12.2956 C.ar    1  UNL1        0.0030
      5 C          61.9974   88.8396   12.1397 C.ar    1  UNL1        0.0369
      6 C          61.1575   88.8431   10.8968 C.ar    1  UNL1        0.1386
      7 C          61.4306   89.8401    9.8099 C.ar    1  UNL1        0.0369
      8 C          62.5435   90.8337    9.9658 C.ar    1  UNL1        0.0031
      9 C          63.3833   90.8302   11.2087 C.ar    1  UNL1       -0.0001
     10 C          64.4962   91.8237   11.3646 C.ar    1  UNL1       -0.0024
     11 C          66.4490   92.8139   12.7634 C.3     1  UNL1        0.1240
     12 N          66.4885   94.0377   11.8970 N.ar    1  UNL1       -0.3045
     13 C          66.8208   94.0724   10.4346 C.ar    1  UNL1        0.0983
     14 C          66.7404   95.4979    9.9747 C.ar    1  UNL1        0.1193
     15 N          66.3585   96.3442   11.1527 N.ar    1  UNL1       -0.2223
     16 C          66.2028   95.4418   12.3407 C.ar    1  UNL1        0.1788
     17 C          67.5222   92.5836   13.7856 C.3     1  UNL1        0.0826
     18 N          67.3680   93.1347   15.1722 N.3     1  UNL1       -0.2696
     19 C          68.4561   93.9767   15.7699 C.3     1  UNL1        0.0897
     20 C          66.1257   92.8439   15.9609 C.3     1  UNL1        0.0897
     21 C          68.9449   91.3258   12.0125 C.3     1  UNL1        0.0015
     22 C          68.7498   91.8022   13.4214 C.3     1  UNL1        0.0182
     23 O          60.0447   87.8495   10.7409 O.3     1  UNL1       -0.4751
     24 C          59.5485   87.4878    9.3723 C.3     1  UNL1        0.2103
     25 C          60.3302   86.5333    8.5191 C.3     1  UNL1        0.0724
     26 C          61.0682   86.0525    9.7332 C.3     1  UNL1        0.0093
     27 C          59.5922   87.0141    7.3050 C.3     1  UNL1        0.0093
     28 C          61.1119   85.5789    7.6660 C.2     1  UNL1        0.0532
     29 O          62.5841   85.4024    7.8936 O.co2   1  UNL1       -0.5491
     30 O          60.4216   84.8008    6.5852 O.co2   1  UNL1       -0.5491
@<TRIPOS>UNITY_ATOM_ATTR
29 1
charge -1
@<TRIPOS>BOND
     1    21    22    1
     2    17    22    1
     3    17    11    1
     4    11     1    1
     5     1     2   ar
     6     2     3   ar
     7     3     4   ar
     8     4     5   ar
     9     5     6   ar
    10     6    23    1
    11    23    24    1
    12    24    25    1
    13    25    26    1
    14    25    27    1
    15    25    28    1
    16    28    29   ar
    17    28    30   ar
    18     6     7   ar
    19     7     8   ar
    20     8     9   ar
    21     9    10   ar
    22    11    12    1
    23    12    13   ar
    24    13    14   ar
    25    14    15   ar
    26    15    16   ar
    27    17    18    1
    28    18    19    1
    29    18    20    1
    30    10     1   ar
    31    16    12   ar
    32     9     4   ar
@<TRIPOS>MOLECULE
*****
 30 32 0 0 0
SMALL
GASTEIGER

@<TRIPOS>ATOM
      1 C          62.3807   87.6367   10.8452 C.ar    1  UNL1       -0.0004
      2 C          62.2920   88.9723   10.1683 C.ar    1  UNL1       -0.0024
      3 C          62.8147   90.1982   10.8568 C.ar    1  UNL1       -0.0002
      4 C          63.4262   90.0884   12.2221 C.ar    1  UNL1        0.0030
      5 C          63.9489   91.3144   12.9105 C.ar    1  UNL1        0.0369
      6 C          64.5604   91.2046   14.2758 C.ar    1  UNL1        0.1386
      7 C          64.6492   89.8689   14.9526 C.ar    1  UNL1        0.0369
      8 C          64.1265   88.6430   14.2642 C.ar    1  UNL1        0.0031
      9 C          63.5150   88.7528   12.8989 C.ar    1  UNL1       -0.0001
     10 C          62.9922   87.5269   12.2105 C.ar    1  UNL1       -0.0024
     11 C          61.8580   86.4107   10.1568 C.3     1  UNL1        0.1240
     12 N          60.7502   86.5294    9.1525 N.ar    1  UNL1       -0.3045
     13 C          59.5500   87.4221    9.2650 C.ar    1  UNL1        0.0983
     14 C          58.7061   87.2206    8.0414 C.ar    1  UNL1        0.1193
     15 N          59.3847   86.2034    7.1726 N.ar    1  UNL1       -0.2223
     16 C          60.6480   85.7763    7.8593 C.ar    1  UNL1        0.1788
     17 C          62.4431   85.0662   10.4727 C.3     1  UNL1        0.0826
     18 N          63.4161   84.4302    9.5247 N.3     1  UNL1       -0.2696
     19 C          63.5305   84.9349    8.1167 C.3     1  UNL1        0.0897
     20 C          64.2748   83.2895    9.9846 C.3     1  UNL1        0.0897
     21 C          62.9404   84.4400   12.9446 C.3     1  UNL1        0.0015
     22 C          62.0551   84.3576   11.7366 C.3     1  UNL1        0.0182
     23 O          65.0831   92.4305   14.9642 O.3     1  UNL1       -0.4751
     24 C          66.2054   93.2142   14.3507 C.3     1  UNL1        0.2103
     25 C          67.6284   92.8484   14.6527 C.3     1  UNL1        0.0724
     26 C          67.8179   92.4113   13.2304 C.3     1  UNL1        0.0093
     27 C          67.4389   93.2855   16.0750 C.3     1  UNL1        0.0093
     28 C          69.0514   92.4826   14.9547 C.2     1  UNL1        0.0532
     29 O          70.0050   92.1915   13.8340 O.co2   1  UNL1       -0.5491
     30 O          69.5208   92.4079   16.3774 O.co2   1  UNL1       -0.5491
@<TRIPOS>UNITY_ATOM_ATTR
29 1
charge -1
@<TRIPOS>BOND
     1    21    22    1
     2    17    22    1
     3    17    11    1
     4    11     1    1
     5     1     2   ar
     6     2     3   ar
     7     3     4   ar
     8     4     5   ar
     9     5     6   ar
    10     6    23    1
    11    23    24    1
    12    24    25    1
    13    25    26    1
    14    25    27    1
    15    25    28    1
    16    28    29   ar
    17    28    30   ar
    18     6     7   ar
    19     7     8   ar
    20     8     9   ar
    21     9    10   ar
    22    11    12    1
    23    12    13   ar
    24    13    14   ar
    25    14    15   ar
    26    15    16   ar
    27    17    18    1
    28    18    19    1
    29    18    20    1
    30    10     1   ar
    31    16    12   ar
    32     9     4   ar
