@<TRIPOS>MOLECULE
*****
 33 36 0 0 0
SMALL
GASTEIGER

@<TRIPOS>ATOM
      1 N          65.0418   91.8652   13.7511 N.am    1  UNL1       -0.2555
      2 C          64.7610   92.0762   12.2928 C.3     1  UNL1        0.1197
      3 C          65.2470   93.3190   11.6076 C.3     1  UNL1        0.1160
      4 N          66.0138   94.3506   12.3807 N.am    1  UNL1       -0.2659
      5 C          66.4998   95.5933   11.6955 C.2     1  UNL1        0.2516
      6 O          67.2666   96.6250   12.4686 O.2     1  UNL1       -0.2698
      7 C          66.2946   94.1395   13.8390 C.3     1  UNL1        0.1799
      8 C          65.8086   92.8968   14.5242 C.2     1  UNL1        0.2497
      9 O          66.0895   92.6858   15.9825 O.2     1  UNL1       -0.2727
     10 C          66.2190   95.8044   10.2373 C.ar    1  UNL1        0.0811
     11 C          65.0511   96.6443    9.8123 C.ar    1  UNL1        0.0091
     12 C          64.7703   96.8553    8.3539 C.ar    1  UNL1        0.0299
     13 C          65.6573   96.2264    7.3207 C.ar    1  UNL1        0.1424
     14 F          65.3765   96.4374    5.8624 F       1  UNL1       -0.2041
     15 C          66.8252   95.3865    7.7457 C.ar    1  UNL1        0.0594
     16 C          67.1060   95.1754    9.2039 C.ar    1  UNL1        0.1467
     17 F          68.2739   94.3355    9.6290 F       1  UNL1       -0.2039
     18 C          63.5838   88.1372   15.8068 C.ar    1  UNL1        0.1386
     19 C          63.3473   89.4798   16.4323 C.ar    1  UNL1        0.0382
     20 C          63.8333   90.7225   15.7470 C.ar    1  UNL1        0.0180
     21 C          64.5558   90.6224   14.4363 C.ar    1  UNL1        0.0541
     22 C          64.7923   89.2798   13.8108 C.ar    1  UNL1        0.0180
     23 C          64.3063   88.0371   14.4961 C.ar    1  UNL1        0.0382
     24 O          63.0978   86.8944   16.4920 O.3     1  UNL1       -0.4754
     25 C          63.7156   85.5672   16.1650 C.3     1  UNL1        0.2068
     26 C          62.9096   84.5190   15.4565 C.3     1  UNL1        0.0646
     27 C          63.5588   83.2368   15.0272 C.3     1  UNL1        0.0759
     28 C          61.7219   80.8600   13.7521 C.3     1  UNL1        0.0173
     29 C          62.6813   81.7330   12.9990 C.3     1  UNL1        0.0576
     30 C          62.9649   81.6668   11.5276 C.3     1  UNL1        0.0174
     31 C          63.9846   82.7185   11.2042 C.3     1  UNL1        0.0187
     32 C          64.3311   83.4345   12.4759 C.3     1  UNL1        0.0721
     33 N          63.5257   82.8255   13.5851 N.3     1  UNL1       -0.2738
@<TRIPOS>BOND
     1    29    28    1
     2    29    30    1
     3    30    31    1
     4    31    32    1
     5    32    33    1
     6    33    27    1
     7    27    26    1
     8    26    25    1
     9    25    24    1
    10    24    18    1
    11    18    19   ar
    12    19    20   ar
    13    20    21   ar
    14    21     1    1
    15     1     2    1
    16     2     3    1
    17     3     4    1
    18     4     5   am
    19     5     6    2
    20     5    10    1
    21    10    11   ar
    22    11    12   ar
    23    12    13   ar
    24    13    14    1
    25    13    15   ar
    26    15    16   ar
    27    16    17    1
    28     4     7    1
    29     7     8    1
    30     8     9    2
    31    21    22   ar
    32    22    23   ar
    33    33    29    1
    34    23    18   ar
    35     8     1   am
    36    16    10   ar
@<TRIPOS>MOLECULE
*****
 33 36 0 0 0
SMALL
GASTEIGER

@<TRIPOS>ATOM
      1 N          61.2816   87.3506    9.9618 N.am    1  UNL1       -0.2555
      2 C          61.1139   85.8680   10.1155 C.3     1  UNL1        0.1197
      3 C          61.8369   85.1410   11.2105 C.3     1  UNL1        0.1160
      4 N          62.7275   85.8966   12.1517 N.am    1  UNL1       -0.2659
      5 C          63.4504   85.1697   13.2466 C.2     1  UNL1        0.2516
      6 O          64.3410   85.9254   14.1878 O.2     1  UNL1       -0.2698
      7 C          62.8952   87.3793   11.9978 C.3     1  UNL1        0.1799
      8 C          62.1723   88.1063   10.9029 C.2     1  UNL1        0.2497
      9 O          62.3399   89.5890   10.7491 O.2     1  UNL1       -0.2727
     10 C          63.2827   83.6871   13.4004 C.ar    1  UNL1        0.0811
     11 C          62.3152   83.1424   14.4090 C.ar    1  UNL1        0.0091
     12 C          62.1476   81.6597   14.5628 C.ar    1  UNL1        0.0299
     13 C          62.9473   80.7218   13.7079 C.ar    1  UNL1        0.1424
     14 F          62.7796   79.2392   13.8617 F       1  UNL1       -0.2041
     15 C          63.9148   81.2665   12.6993 C.ar    1  UNL1        0.0594
     16 C          64.0825   82.7492   12.5455 C.ar    1  UNL1        0.1467
     17 F          65.0499   83.2939   11.5369 F       1  UNL1       -0.2039
     18 C          59.1129   89.5315    6.6769 C.ar    1  UNL1        0.1386
     19 C          59.0807   88.0328    6.7306 C.ar    1  UNL1        0.0382
     20 C          59.8036   87.3059    7.8256 C.ar    1  UNL1        0.0180
     21 C          60.5587   88.0776    8.8668 C.ar    1  UNL1        0.0541
     22 C          60.5910   89.5763    8.8131 C.ar    1  UNL1        0.0180
     23 C          59.8681   90.3032    7.7181 C.ar    1  UNL1        0.0382
     24 O          58.3900   90.2585    5.5819 O.3     1  UNL1       -0.4754
     25 C          58.8102   91.6464    5.1985 C.3     1  UNL1        0.2068
     26 C          59.9228   91.8478    4.2127 C.3     1  UNL1        0.0646
     27 C          59.9316   93.0598    3.3291 C.3     1  UNL1        0.0759
     28 C          62.8132   92.3126    1.9920 C.3     1  UNL1        0.0173
     29 C          61.5370   92.5733    1.2480 C.3     1  UNL1        0.0576
     30 C          61.3614   92.5363   -0.2412 C.3     1  UNL1        0.0174
     31 C          59.9283   92.8569   -0.5470 C.3     1  UNL1        0.0187
     32 C          59.2183   93.0920    0.7532 C.3     1  UNL1        0.0721
     33 N          60.2126   92.9168    1.8626 N.3     1  UNL1       -0.2738
@<TRIPOS>BOND
     1    29    28    1
     2    29    30    1
     3    30    31    1
     4    31    32    1
     5    32    33    1
     6    33    27    1
     7    27    26    1
     8    26    25    1
     9    25    24    1
    10    24    18    1
    11    18    19   ar
    12    19    20   ar
    13    20    21   ar
    14    21     1    1
    15     1     2    1
    16     2     3    1
    17     3     4    1
    18     4     5   am
    19     5     6    2
    20     5    10    1
    21    10    11   ar
    22    11    12   ar
    23    12    13   ar
    24    13    14    1
    25    13    15   ar
    26    15    16   ar
    27    16    17    1
    28     4     7    1
    29     7     8    1
    30     8     9    2
    31    21    22   ar
    32    22    23   ar
    33    33    29    1
    34    23    18   ar
    35     8     1   am
    36    16    10   ar
@<TRIPOS>MOLECULE
*****
 33 36 0 0 0
SMALL
GASTEIGER

@<TRIPOS>ATOM
      1 N          61.2839   87.3789    9.9365 N.am    1  UNL1       -0.2555
      2 C          61.1028   85.8981   10.0929 C.3     1  UNL1        0.1197
      3 C          61.8196   85.1664   11.1888 C.3     1  UNL1        0.1160
      4 N          62.7174   85.9156   12.1283 N.am    1  UNL1       -0.2659
      5 C          63.4342   85.1840   13.2241 C.2     1  UNL1        0.2516
      6 O          64.3320   85.9332   14.1637 O.2     1  UNL1       -0.2698
      7 C          62.8984   87.3964   11.9719 C.3     1  UNL1        0.1799
      8 C          62.1817   88.1280   10.8760 C.2     1  UNL1        0.2497
      9 O          62.3627   89.6089   10.7196 O.2     1  UNL1       -0.2727
     10 C          63.2532   83.7032   13.3805 C.ar    1  UNL1        0.0811
     11 C          62.2921   83.1687   14.4006 C.ar    1  UNL1        0.0091
     12 C          62.1111   81.6878   14.5569 C.ar    1  UNL1        0.0299
     13 C          62.8911   80.7416   13.6932 C.ar    1  UNL1        0.1424
     14 F          62.7101   79.2608   13.8495 F       1  UNL1       -0.2041
     15 C          63.8522   81.2761   12.6731 C.ar    1  UNL1        0.0594
     16 C          64.0332   82.7569   12.5167 C.ar    1  UNL1        0.1467
     17 F          64.9943   83.2914   11.4966 F       1  UNL1       -0.2039
     18 C          59.1336   89.5739    6.6490 C.ar    1  UNL1        0.1386
     19 C          59.8367   90.3421    7.7285 C.ar    1  UNL1        0.0382
     20 C          60.5534   89.6104    8.8244 C.ar    1  UNL1        0.0180
     21 C          60.5671   88.1105    8.8406 C.ar    1  UNL1        0.0541
     22 C          59.8640   87.3424    7.7611 C.ar    1  UNL1        0.0180
     23 C          59.1472   88.0741    6.6652 C.ar    1  UNL1        0.0382
     24 O          58.4168   90.3056    5.5531 O.3     1  UNL1       -0.4754
     25 C          58.8613   91.6816    5.1545 C.3     1  UNL1        0.2068
     26 C          60.1664   91.8705    4.4394 C.3     1  UNL1        0.0646
     27 C          60.1849   92.4285    3.0473 C.3     1  UNL1        0.0759
     28 C          63.0935   90.9612    3.2385 C.3     1  UNL1        0.0173
     29 C          62.8054   92.2610    2.5474 C.3     1  UNL1        0.0576
     30 C          63.8037   93.1146    1.8230 C.3     1  UNL1        0.0174
     31 C          63.0837   94.3166    1.2873 C.3     1  UNL1        0.0187
     32 C          61.6405   94.2059    1.6807 C.3     1  UNL1        0.0721
     33 N          61.4685   92.9355    2.4595 N.3     1  UNL1       -0.2738
@<TRIPOS>BOND
     1    29    28    1
     2    29    30    1
     3    30    31    1
     4    31    32    1
     5    32    33    1
     6    33    27    1
     7    27    26    1
     8    26    25    1
     9    25    24    1
    10    24    18    1
    11    18    19   ar
    12    19    20   ar
    13    20    21   ar
    14    21     1    1
    15     1     2    1
    16     2     3    1
    17     3     4    1
    18     4     5   am
    19     5     6    2
    20     5    10    1
    21    10    11   ar
    22    11    12   ar
    23    12    13   ar
    24    13    14    1
    25    13    15   ar
    26    15    16   ar
    27    16    17    1
    28     4     7    1
    29     7     8    1
    30     8     9    2
    31    21    22   ar
    32    22    23   ar
    33    33    29    1
    34    23    18   ar
    35     8     1   am
    36    16    10   ar
@<TRIPOS>MOLECULE
*****
 33 36 0 0 0
SMALL
GASTEIGER

@<TRIPOS>ATOM
      1 N          61.1674   87.0031    9.5796 N.am    1  UNL1       -0.2555
      2 C          61.1007   87.3800   11.0299 C.3     1  UNL1        0.1197
      3 C          61.8661   86.5863   12.0471 C.3     1  UNL1        0.1160
      4 N          62.6981   85.4158   11.6138 N.am    1  UNL1       -0.2659
      5 C          63.4634   84.6222   12.6308 C.2     1  UNL1        0.2516
      6 O          64.2954   83.4517   12.1975 O.2     1  UNL1       -0.2698
      7 C          62.7646   85.0389   10.1634 C.3     1  UNL1        0.1799
      8 C          61.9993   85.8325    9.1464 C.2     1  UNL1        0.2497
      9 O          62.0659   85.4556    7.6960 O.2     1  UNL1       -0.2727
     10 C          63.3968   84.9991   14.0811 C.ar    1  UNL1        0.0811
     11 C          64.1907   86.1656   14.5902 C.ar    1  UNL1        0.0091
     12 C          64.1241   86.5425   16.0406 C.ar    1  UNL1        0.0299
     13 C          63.2635   85.7529   16.9818 C.ar    1  UNL1        0.1424
     14 F          63.1969   86.1298   18.4322 F       1  UNL1       -0.2041
     15 C          62.4696   84.5865   16.4728 C.ar    1  UNL1        0.0594
     16 C          62.5362   84.2096   15.0225 C.ar    1  UNL1        0.1467
     17 F          61.7423   83.0431   14.5135 F       1  UNL1       -0.2039
     18 C          58.8713   89.3837    6.5284 C.ar    1  UNL1        0.1386
     19 C          58.6678   87.9012    6.6308 C.ar    1  UNL1        0.0382
     20 C          59.4332   87.1076    7.6478 C.ar    1  UNL1        0.0180
     21 C          60.4020   87.7967    8.5625 C.ar    1  UNL1        0.0541
     22 C          60.6055   89.2792    8.4601 C.ar    1  UNL1        0.0180
     23 C          59.8401   90.0728    7.4430 C.ar    1  UNL1        0.0382
     24 O          58.1059   90.1774    5.5112 O.3     1  UNL1       -0.4754
     25 C          58.5208   91.5824    5.1893 C.3     1  UNL1        0.2068
     26 C          59.7326   91.8309    4.3408 C.3     1  UNL1        0.0646
     27 C          59.8058   93.0559    3.4782 C.3     1  UNL1        0.0759
     28 C          62.8227   92.3575    2.4486 C.3     1  UNL1        0.0173
     29 C          61.6317   92.6203    1.5754 C.3     1  UNL1        0.0576
     30 C          61.6185   92.6082    0.0755 C.3     1  UNL1        0.0174
     31 C          60.2235   92.9217   -0.3783 C.3     1  UNL1        0.0187
     32 C          59.3747   93.1276    0.8412 C.3     1  UNL1        0.0721
     33 N          60.2450   92.9413    2.0486 N.3     1  UNL1       -0.2738
@<TRIPOS>BOND
     1    29    28    1
     2    29    30    1
     3    30    31    1
     4    31    32    1
     5    32    33    1
     6    33    27    1
     7    27    26    1
     8    26    25    1
     9    25    24    1
    10    24    18    1
    11    18    19   ar
    12    19    20   ar
    13    20    21   ar
    14    21     1    1
    15     1     2    1
    16     2     3    1
    17     3     4    1
    18     4     5   am
    19     5     6    2
    20     5    10    1
    21    10    11   ar
    22    11    12   ar
    23    12    13   ar
    24    13    14    1
    25    13    15   ar
    26    15    16   ar
    27    16    17    1
    28     4     7    1
    29     7     8    1
    30     8     9    2
    31    21    22   ar
    32    22    23   ar
    33    33    29    1
    34    23    18   ar
    35     8     1   am
    36    16    10   ar
@<TRIPOS>MOLECULE
*****
 33 36 0 0 0
SMALL
GASTEIGER

@<TRIPOS>ATOM
      1 N          64.9828   91.5604   13.8253 N.am    1  UNL1       -0.2555
      2 C          64.7856   91.7766   12.3541 C.3     1  UNL1        0.1197
      3 C          65.2941   93.0300   11.7055 C.3     1  UNL1        0.1160
      4 N          65.9998   94.0670   12.5280 N.am    1  UNL1       -0.2659
      5 C          66.5083   95.3203   11.8794 C.2     1  UNL1        0.2516
      6 O          67.2139   96.3573   12.7020 O.2     1  UNL1       -0.2698
      7 C          66.1969   93.8507   13.9992 C.3     1  UNL1        0.1799
      8 C          65.6884   92.5974   14.6478 C.2     1  UNL1        0.2497
      9 O          65.8856   92.3811   16.1190 O.2     1  UNL1       -0.2727
     10 C          66.3111   95.5365   10.4083 C.ar    1  UNL1        0.0811
     11 C          67.3048   94.9850    9.4293 C.ar    1  UNL1        0.0091
     12 C          67.1076   95.2013    7.9581 C.ar    1  UNL1        0.0299
     13 C          65.9167   95.9691    7.4659 C.ar    1  UNL1        0.1424
     14 F          65.7195   96.1853    5.9948 F       1  UNL1       -0.2041
     15 C          64.9229   96.5205    8.4449 C.ar    1  UNL1        0.0594
     16 C          65.1201   96.3043    9.9161 C.ar    1  UNL1        0.1467
     17 F          64.1264   96.8557   10.8950 F       1  UNL1       -0.2039
     18 C          63.4573   87.8005   15.7711 C.ar    1  UNL1        0.1386
     19 C          64.1200   87.7337   14.4271 C.ar    1  UNL1        0.0382
     20 C          64.6285   88.9870   13.7785 C.ar    1  UNL1        0.0180
     21 C          64.4743   90.3071   14.4739 C.ar    1  UNL1        0.0541
     22 C          63.8116   90.3739   15.8179 C.ar    1  UNL1        0.0180
     23 C          63.3032   89.1206   16.4665 C.ar    1  UNL1        0.0382
     24 O          62.9488   86.5472   16.4197 O.3     1  UNL1       -0.4754
     25 C          63.4206   85.2079   15.9362 C.3     1  UNL1        0.2068
     26 C          64.0890   85.0861   14.5989 C.3     1  UNL1        0.0646
     27 C          63.5766   84.1002   13.5913 C.3     1  UNL1        0.0759
     28 C          64.3688   82.6369   10.7841 C.3     1  UNL1        0.0173
     29 C          63.5574   83.8904   10.9266 C.3     1  UNL1        0.0576
     30 C          62.9677   84.6914    9.8038 C.3     1  UNL1        0.0174
     31 C          62.2391   85.8591   10.4002 C.3     1  UNL1        0.0187
     32 C          62.3785   85.7797   11.8916 C.3     1  UNL1        0.0721
     33 N          63.1933   84.5630   12.2170 N.3     1  UNL1       -0.2738
@<TRIPOS>BOND
     1    29    28    1
     2    29    30    1
     3    30    31    1
     4    31    32    1
     5    32    33    1
     6    33    27    1
     7    27    26    1
     8    26    25    1
     9    25    24    1
    10    24    18    1
    11    18    19   ar
    12    19    20   ar
    13    20    21   ar
    14    21     1    1
    15     1     2    1
    16     2     3    1
    17     3     4    1
    18     4     5   am
    19     5     6    2
    20     5    10    1
    21    10    11   ar
    22    11    12   ar
    23    12    13   ar
    24    13    14    1
    25    13    15   ar
    26    15    16   ar
    27    16    17    1
    28     4     7    1
    29     7     8    1
    30     8     9    2
    31    21    22   ar
    32    22    23   ar
    33    33    29    1
    34    23    18   ar
    35     8     1   am
    36    16    10   ar
@<TRIPOS>MOLECULE
*****
 33 36 0 0 0
SMALL
GASTEIGER

@<TRIPOS>ATOM
      1 N          61.1863   87.0068    9.7003 N.am    1  UNL1       -0.2555
      2 C          61.0689   87.3873   11.1464 C.3     1  UNL1        0.1197
      3 C          61.8243   86.6167   12.1884 C.3     1  UNL1        0.1160
      4 N          62.6970   85.4656   11.7841 N.am    1  UNL1       -0.2659
      5 C          63.4523   84.6950   12.8260 C.2     1  UNL1        0.2516
      6 O          64.3250   83.5439   12.4218 O.2     1  UNL1       -0.2698
      7 C          62.8143   85.0851   10.3379 C.3     1  UNL1        0.1799
      8 C          62.0590   85.8557    9.2960 C.2     1  UNL1        0.2497
      9 O          62.1763   85.4753    7.8497 O.2     1  UNL1       -0.2727
     10 C          63.3349   85.0755   14.2722 C.ar    1  UNL1        0.0811
     11 C          62.6314   84.1634   15.2330 C.ar    1  UNL1        0.0091
     12 C          62.5140   84.5439   16.6792 C.ar    1  UNL1        0.0299
     13 C          63.1002   85.8365   17.1646 C.ar    1  UNL1        0.1424
     14 F          62.9828   86.2169   18.6107 F       1  UNL1       -0.2041
     15 C          63.8037   86.7486   16.2038 C.ar    1  UNL1        0.0594
     16 C          63.9211   86.3681   14.7576 C.ar    1  UNL1        0.1467
     17 F          64.6247   87.2802   13.7969 F       1  UNL1       -0.2039
     18 C          58.9203   89.3186    6.5744 C.ar    1  UNL1        0.1386
     19 C          59.8160   90.0394    7.5378 C.ar    1  UNL1        0.0382
     20 C          60.5713   89.2688    8.5798 C.ar    1  UNL1        0.0180
     21 C          60.4309   87.7774    8.6583 C.ar    1  UNL1        0.0541
     22 C          59.5352   87.0567    7.6948 C.ar    1  UNL1        0.0180
     23 C          58.7799   87.8273    6.6529 C.ar    1  UNL1        0.0382
     24 O          58.1650   90.0892    5.5324 O.3     1  UNL1       -0.4754
     25 C          58.5606   91.4995    5.2089 C.3     1  UNL1        0.2068
     26 C          59.8462   91.7705    4.4851 C.3     1  UNL1        0.0646
     27 C          59.8772   92.7564    3.3550 C.3     1  UNL1        0.0759
     28 C          60.2161   94.6749    0.7371 C.3     1  UNL1        0.0173
     29 C          61.2829   93.8101    1.3405 C.3     1  UNL1        0.0576
     30 C          62.6928   93.6754    0.8466 C.3     1  UNL1        0.0174
     31 C          63.4084   92.7103    1.7447 C.3     1  UNL1        0.0187
     32 C          62.4408   92.2486    2.7936 C.3     1  UNL1        0.0721
     33 N          61.1271   92.9283    2.5439 N.3     1  UNL1       -0.2738
@<TRIPOS>BOND
     1    29    28    1
     2    29    30    1
     3    30    31    1
     4    31    32    1
     5    32    33    1
     6    33    27    1
     7    27    26    1
     8    26    25    1
     9    25    24    1
    10    24    18    1
    11    18    19   ar
    12    19    20   ar
    13    20    21   ar
    14    21     1    1
    15     1     2    1
    16     2     3    1
    17     3     4    1
    18     4     5   am
    19     5     6    2
    20     5    10    1
    21    10    11   ar
    22    11    12   ar
    23    12    13   ar
    24    13    14    1
    25    13    15   ar
    26    15    16   ar
    27    16    17    1
    28     4     7    1
    29     7     8    1
    30     8     9    2
    31    21    22   ar
    32    22    23   ar
    33    33    29    1
    34    23    18   ar
    35     8     1   am
    36    16    10   ar
@<TRIPOS>MOLECULE
*****
 33 36 0 0 0
SMALL
GASTEIGER

@<TRIPOS>ATOM
      1 N          62.0431   89.5820   10.7441 N.am    1  UNL1       -0.2555
      2 C          61.9328   90.6050    9.6526 C.3     1  UNL1        0.1197
      3 C          61.0115   90.3679    8.4928 C.3     1  UNL1        0.1160
      4 N          60.2005   89.1079    8.4246 N.am    1  UNL1       -0.2659
      5 C          59.2793   88.8709    7.2648 C.2     1  UNL1        0.2516
      6 O          58.4683   87.6109    7.1965 O.2     1  UNL1       -0.2698
      7 C          60.3109   88.0849    9.5161 C.3     1  UNL1        0.1799
      8 C          61.2321   88.3220   10.6758 C.2     1  UNL1        0.2497
      9 O          61.3424   87.2990   11.7674 O.2     1  UNL1       -0.2727
     10 C          59.1690   89.8938    6.1734 C.ar    1  UNL1        0.0811
     11 C          60.4047   90.3901    5.4829 C.ar    1  UNL1        0.0091
     12 C          60.2943   91.4131    4.3914 C.ar    1  UNL1        0.0299
     13 C          58.9484   91.9398    3.9904 C.ar    1  UNL1        0.1424
     14 F          58.8381   92.9628    2.8989 F       1  UNL1       -0.2041
     15 C          57.7126   91.4436    4.6809 C.ar    1  UNL1        0.0594
     16 C          57.8229   90.4206    5.7723 C.ar    1  UNL1        0.1467
     17 F          56.5872   89.9243    6.4628 F       1  UNL1       -0.2039
     18 C          64.8069   90.2929   14.2234 C.ar    1  UNL1        0.1386
     19 C          64.2852   88.9135   13.9497 C.ar    1  UNL1        0.0382
     20 C          63.3640   88.6765   12.7900 C.ar    1  UNL1        0.0180
     21 C          62.9644   89.8190   11.9039 C.ar    1  UNL1        0.0541
     22 C          63.4861   91.1984   12.1776 C.ar    1  UNL1        0.0180
     23 C          64.4074   91.4354   13.3374 C.ar    1  UNL1        0.0382
     24 O          65.7282   90.5299   15.3833 O.3     1  UNL1       -0.4754
     25 C          66.4685   91.8293   15.4997 C.3     1  UNL1        0.2068
     26 C          67.8199   91.9819   14.8669 C.3     1  UNL1        0.0646
     27 C          67.9683   91.8684   13.3786 C.3     1  UNL1        0.0759
     28 C          68.0275   91.8548   10.1159 C.3     1  UNL1        0.0173
     29 C          67.3446   92.8721   10.9811 C.3     1  UNL1        0.0576
     30 C          66.5689   94.0618   10.4984 C.3     1  UNL1        0.0174
     31 C          66.0623   94.8034   11.6999 C.3     1  UNL1        0.0187
     32 C          66.5249   94.0720   12.9250 C.3     1  UNL1        0.0721
     33 N          67.3174   92.8784   12.4808 N.3     1  UNL1       -0.2738
@<TRIPOS>BOND
     1    29    28    1
     2    29    30    1
     3    30    31    1
     4    31    32    1
     5    32    33    1
     6    33    27    1
     7    27    26    1
     8    26    25    1
     9    25    24    1
    10    24    18    1
    11    18    19   ar
    12    19    20   ar
    13    20    21   ar
    14    21     1    1
    15     1     2    1
    16     2     3    1
    17     3     4    1
    18     4     5   am
    19     5     6    2
    20     5    10    1
    21    10    11   ar
    22    11    12   ar
    23    12    13   ar
    24    13    14    1
    25    13    15   ar
    26    15    16   ar
    27    16    17    1
    28     4     7    1
    29     7     8    1
    30     8     9    2
    31    21    22   ar
    32    22    23   ar
    33    33    29    1
    34    23    18   ar
    35     8     1   am
    36    16    10   ar
