@<TRIPOS>MOLECULE
*****
 35 38 0 0 0
SMALL
GASTEIGER

@<TRIPOS>ATOM
      1 C          63.6303   87.0508   16.0129 C.3     1  UNL1        0.1812
      2 O          64.1371   87.1539   14.6049 O.3     1  UNL1       -0.3784
      3 H          64.5466   86.3135   14.3463 H       1  UNL1        0.2106
      4 C          63.1236   86.9477   17.4209 C.3     1  UNL1        0.4197
      5 F          62.6167   86.8447   18.8290 F       1  UNL1       -0.1676
      6 F          64.0703   85.8130   17.6786 F       1  UNL1       -0.1676
      7 F          62.1769   88.0823   17.1633 F       1  UNL1       -0.1676
      8 C          64.1229   85.6358   16.0867 C.3     1  UNL1        0.0398
      9 C          62.3922   84.5911   15.4437 C.3     1  UNL1        0.0045
     10 C          63.8150   84.6757   14.9761 C.3     1  UNL1        0.0216
     11 C          65.2377   84.7603   14.5085 C.3     1  UNL1        0.0045
     12 C          63.5071   83.7156   13.8656 C.ar    1  UNL1       -0.0197
     13 C          62.4253   82.6909   14.0384 C.ar    1  UNL1       -0.0041
     14 C          62.1174   81.7307   12.9278 C.ar    1  UNL1        0.0028
     15 C          62.8913   81.7953   11.6444 C.ar    1  UNL1        0.0366
     16 C          63.9730   82.8200   11.4717 C.ar    1  UNL1        0.1334
     17 O          64.7469   82.8845   10.1883 O.3     1  UNL1       -0.5055
     18 C          64.2809   83.7801   12.5822 C.ar    1  UNL1        0.0323
     19 H          64.5546   82.2848    9.4945 H       1  UNL1        0.2922
     20 C          63.1378   88.4657   15.9392 C.3     1  UNL1        0.0811
     21 C          63.4937   89.3233   14.7612 C.2     1  UNL1        0.0614
     22 C          64.5993   90.3359   14.7097 C.2     1  UNL1        0.0163
     23 C          64.5955   90.9573   13.3445 C.2     1  UNL1        0.0264
     24 C          65.4577   92.0143   12.7205 C.2     1  UNL1        0.0903
     25 C          65.2120   92.4428   11.3041 C.2     1  UNL1        0.3192
     26 N          64.1042   91.8143   10.5118 N.2     1  UNL1       -0.0585
     27 C          63.2420   90.7574   11.1359 C.3     1  UNL1        0.3085
     28 C          63.4876   90.3289   12.5522 C.2     1  UNL1        0.1121
     29 N          62.8067   89.3189   13.4278 N.2     1  UNL1       -0.2495
     30 N          66.0742   93.4998   10.6800 N.pl3   1  UNL1       -0.1860
     31 C          65.7875   94.9496   10.9369 C.3     1  UNL1        0.2346
     32 C          66.6497   96.0066   10.3128 C.3     1  UNL1        0.1929
     33 O          67.7985   95.6137    9.4319 O.3     1  UNL1       -0.3449
     34 C          68.0851   94.1639    9.1751 C.3     1  UNL1        0.1929
     35 C          67.2229   93.1070    9.7991 C.3     1  UNL1        0.2346
@<TRIPOS>BOND
     1     9    10    1
     2    10    11    1
     3    10     8    1
     4     8     1    1
     5     1     2    1
     6     1    20    1
     7    20    21    1
     8    21    22    2
     9    22    23    1
    10    23    24    2
    11    24    25    1
    12    25    30    1
    13    30    31    1
    14    31    32    1
    15    32    33    1
    16    33    34    1
    17    34    35    1
    18    25    26    2
    19    26    27    1
    20    27    28    1
    21    28    29    2
    22     1     4    1
    23     4     5    1
    24     4     6    1
    25     4     7    1
    26    10    12    1
    27    12    13   ar
    28    13    14   ar
    29    14    15   ar
    30    15    16   ar
    31    16    17    1
    32    16    18   ar
    33    29    21    1
    34    18    12   ar
    35    28    23    1
    36    35    30    1
    37     2     3    1
    38    17    19    1
@<TRIPOS>MOLECULE
*****
 35 38 0 0 0
SMALL
GASTEIGER

@<TRIPOS>ATOM
      1 C          63.6004   87.0628   16.0621 C.3     1  UNL1        0.1812
      2 O          64.1605   87.1977   14.6772 O.3     1  UNL1       -0.3784
      3 H          64.5193   86.3439   14.3889 H       1  UNL1        0.2106
      4 C          63.0404   86.9279   17.4470 C.3     1  UNL1        0.4197
      5 F          62.4803   86.7929   18.8320 F       1  UNL1       -0.1676
      6 F          62.1070   88.0716   17.1810 F       1  UNL1       -0.1676
      7 F          63.9737   85.7842   17.7130 F       1  UNL1       -0.1676
      8 C          63.9908   85.6145   16.0789 C.3     1  UNL1        0.0398
      9 C          65.1378   84.8304   14.4760 C.3     1  UNL1        0.0045
     10 C          63.6991   84.7453   14.8918 C.3     1  UNL1        0.0216
     11 C          62.2604   84.6602   15.3076 C.3     1  UNL1        0.0045
     12 C          63.4074   83.8761   13.7046 C.ar    1  UNL1       -0.0197
     13 C          63.4831   84.4477   12.3198 C.ar    1  UNL1       -0.0041
     14 C          63.1913   83.5785   11.1327 C.ar    1  UNL1        0.0028
     15 C          62.8240   82.1376   11.3303 C.ar    1  UNL1        0.0366
     16 C          62.7483   81.5661   12.7150 C.ar    1  UNL1        0.1334
     17 O          62.3809   80.1252   12.9127 O.3     1  UNL1       -0.5055
     18 C          63.0400   82.4353   13.9022 C.ar    1  UNL1        0.0323
     19 H          62.1987   79.5822   12.1711 H       1  UNL1        0.2922
     20 C          63.2101   88.5110   16.0453 C.3     1  UNL1        0.0811
     21 C          63.5460   89.3645   14.8585 C.2     1  UNL1        0.0614
     22 C          64.6717   90.3523   14.7732 C.2     1  UNL1        0.0163
     23 C          64.6367   90.9785   13.4106 C.2     1  UNL1        0.0264
     24 C          65.5013   92.0181   12.7612 C.2     1  UNL1        0.0903
     25 C          65.2186   92.4570   11.3550 C.2     1  UNL1        0.3192
     26 N          64.0713   91.8563   10.5982 N.2     1  UNL1       -0.0585
     27 C          63.2067   90.8167   11.2475 C.3     1  UNL1        0.3085
     28 C          63.4893   90.3778   12.6537 C.2     1  UNL1        0.1121
     29 N          62.8153   89.3803   13.5486 N.2     1  UNL1       -0.2495
     30 N          66.0832   93.4966   10.7056 N.pl3   1  UNL1       -0.1860
     31 C          65.8253   94.9522   10.9601 C.3     1  UNL1        0.2346
     32 C          66.6899   95.9918   10.3107 C.3     1  UNL1        0.1929
     33 O          67.8124   95.5758    9.4068 O.3     1  UNL1       -0.3449
     34 C          68.0703   94.1202    9.1523 C.3     1  UNL1        0.1929
     35 C          67.2056   93.0806    9.8017 C.3     1  UNL1        0.2346
@<TRIPOS>BOND
     1     9    10    1
     2    10    11    1
     3    10     8    1
     4     8     1    1
     5     1     2    1
     6     1    20    1
     7    20    21    1
     8    21    22    2
     9    22    23    1
    10    23    24    2
    11    24    25    1
    12    25    30    1
    13    30    31    1
    14    31    32    1
    15    32    33    1
    16    33    34    1
    17    34    35    1
    18    25    26    2
    19    26    27    1
    20    27    28    1
    21    28    29    2
    22     1     4    1
    23     4     5    1
    24     4     6    1
    25     4     7    1
    26    10    12    1
    27    12    13   ar
    28    13    14   ar
    29    14    15   ar
    30    15    16   ar
    31    16    17    1
    32    16    18   ar
    33    29    21    1
    34    18    12   ar
    35    28    23    1
    36    35    30    1
    37     2     3    1
    38    17    19    1
@<TRIPOS>MOLECULE
*****
 35 38 0 0 0
SMALL
GASTEIGER

@<TRIPOS>ATOM
      1 C          61.8093   86.8257   10.3918 C.3     1  UNL1        0.1812
      2 O          62.9125   86.9136   11.4042 O.3     1  UNL1       -0.3784
      3 H          63.4703   86.1223   11.3442 H       1  UNL1        0.2106
      4 C          60.7061   86.7378    9.3793 C.3     1  UNL1        0.4197
      5 F          59.6028   86.6499    8.3668 F       1  UNL1       -0.1676
      6 F          61.6626   86.1430    8.3886 F       1  UNL1       -0.1676
      7 F          59.7496   87.3325   10.3699 F       1  UNL1       -0.1676
      8 C          62.3341   85.4967    9.9352 C.3     1  UNL1        0.0398
      9 C          61.7269   85.0663   11.9217 C.3     1  UNL1        0.0045
     10 C          62.6739   84.4383   10.9424 C.3     1  UNL1        0.0216
     11 C          63.6209   83.8104    9.9632 C.3     1  UNL1        0.0045
     12 C          63.0137   83.3800   11.9497 C.ar    1  UNL1       -0.0197
     13 C          62.8062   81.9324   11.6155 C.ar    1  UNL1       -0.0041
     14 C          63.1460   80.8741   12.6228 C.ar    1  UNL1        0.0028
     15 C          63.6932   81.2633   13.9641 C.ar    1  UNL1        0.0366
     16 C          63.9006   82.7108   14.2982 C.ar    1  UNL1        0.1334
     17 O          64.4478   83.1001   15.6395 O.3     1  UNL1       -0.5055
     18 C          63.5608   83.7692   13.2909 C.ar    1  UNL1        0.0323
     19 H          64.6601   82.4390   16.2687 H       1  UNL1        0.2922
     20 C          61.2845   88.1546   10.8483 C.3     1  UNL1        0.0811
     21 C          62.2323   89.2909   11.0942 C.2     1  UNL1        0.0614
     22 C          62.7232   90.2676   10.0670 C.2     1  UNL1        0.0163
     23 C          63.6499   91.2304   10.7485 C.2     1  UNL1        0.0264
     24 C          64.4298   92.4053   10.2373 C.2     1  UNL1        0.0903
     25 C          65.2915   93.1986   11.1745 C.2     1  UNL1        0.3192
     26 N          65.3733   92.8169   12.6227 N.2     1  UNL1       -0.0585
     27 C          64.5934   91.6420   13.1339 C.3     1  UNL1        0.3085
     28 C          63.7317   90.8487   12.1968 C.2     1  UNL1        0.1121
     29 N          62.8555   89.6500   12.4105 N.2     1  UNL1       -0.2495
     30 N          66.0714   94.3735   10.6633 N.pl3   1  UNL1       -0.1860
     31 C          66.8951   94.2418    9.4165 C.3     1  UNL1        0.2346
     32 C          67.6750   95.4167    8.9053 C.3     1  UNL1        0.1929
     33 O          67.6313   96.7233    9.6409 O.3     1  UNL1       -0.3449
     34 C          66.8077   96.8549   10.8876 C.3     1  UNL1        0.1929
     35 C          66.0278   95.6800   11.3988 C.3     1  UNL1        0.2346
@<TRIPOS>BOND
     1     9    10    1
     2    10    11    1
     3    10     8    1
     4     8     1    1
     5     1     2    1
     6     1    20    1
     7    20    21    1
     8    21    22    2
     9    22    23    1
    10    23    24    2
    11    24    25    1
    12    25    30    1
    13    30    31    1
    14    31    32    1
    15    32    33    1
    16    33    34    1
    17    34    35    1
    18    25    26    2
    19    26    27    1
    20    27    28    1
    21    28    29    2
    22     1     4    1
    23     4     5    1
    24     4     6    1
    25     4     7    1
    26    10    12    1
    27    12    13   ar
    28    13    14   ar
    29    14    15   ar
    30    15    16   ar
    31    16    17    1
    32    16    18   ar
    33    29    21    1
    34    18    12   ar
    35    28    23    1
    36    35    30    1
    37     2     3    1
    38    17    19    1
@<TRIPOS>MOLECULE
*****
 35 38 0 0 0
SMALL
GASTEIGER

@<TRIPOS>ATOM
      1 C          61.3088   88.1510    9.3173 C.3     1  UNL1        0.1812
      2 O          62.5773   87.8931   10.0752 O.3     1  UNL1       -0.3784
      3 H          62.8595   86.9763    9.9308 H       1  UNL1        0.2106
      4 C          60.0404   88.4090    8.5594 C.3     1  UNL1        0.4197
      5 F          58.7719   88.6670    7.8015 F       1  UNL1       -0.1676
      6 F          60.3809   87.2976    7.6112 F       1  UNL1       -0.1676
      7 F          59.6999   89.5204    9.5075 F       1  UNL1       -0.1676
      8 C          61.3232   86.7386    8.8124 C.3     1  UNL1        0.0398
      9 C          62.9026   85.3893    8.3821 C.3     1  UNL1        0.0045
     10 C          62.0483   85.6745    9.5817 C.3     1  UNL1        0.0216
     11 C          61.1941   85.9596   10.7813 C.3     1  UNL1        0.0045
     12 C          62.7735   84.6104   10.3510 C.ar    1  UNL1       -0.0197
     13 C          63.7401   83.7038    9.6482 C.ar    1  UNL1       -0.0041
     14 C          64.4652   82.6397   10.4176 C.ar    1  UNL1        0.0028
     15 C          64.2237   82.4821   11.8896 C.ar    1  UNL1        0.0366
     16 C          63.2572   83.3887   12.5923 C.ar    1  UNL1        0.1334
     17 O          63.0157   83.2312   14.0644 O.3     1  UNL1       -0.5055
     18 C          62.5320   84.4528   11.8230 C.ar    1  UNL1        0.0323
     19 H          63.4686   82.5665   14.5450 H       1  UNL1        0.2922
     20 C          61.2944   89.5634    9.8222 C.3     1  UNL1        0.0811
     21 C          62.1634   89.9547   10.9805 C.2     1  UNL1        0.0614
     22 C          63.3942   90.8093   10.9103 C.2     1  UNL1        0.0163
     23 C          63.9456   90.9429   12.2988 C.2     1  UNL1        0.0264
     24 C          65.1432   91.6678   12.8377 C.2     1  UNL1        0.0903
     25 C          65.4508   91.6207   14.3051 C.2     1  UNL1        0.3192
     26 N          64.5609   90.8486   15.2335 N.2     1  UNL1       -0.0585
     27 C          63.3633   90.1237   14.6946 C.3     1  UNL1        0.3085
     28 C          63.0557   90.1709   13.2273 C.2     1  UNL1        0.1121
     29 N          61.9542   89.5601   12.4125 N.2     1  UNL1       -0.2495
     30 N          66.6483   92.3456   14.8441 N.pl3   1  UNL1       -0.1860
     31 C          66.8001   93.8197   14.6114 C.3     1  UNL1        0.2346
     32 C          67.9976   94.5446   15.1504 C.3     1  UNL1        0.1929
     33 O          69.0433   93.7954   15.9219 O.3     1  UNL1       -0.3449
     34 C          68.8915   92.3213   16.1545 C.3     1  UNL1        0.1929
     35 C          67.6940   91.5964   15.6156 C.3     1  UNL1        0.2346
@<TRIPOS>BOND
     1     9    10    1
     2    10    11    1
     3    10     8    1
     4     8     1    1
     5     1     2    1
     6     1    20    1
     7    20    21    1
     8    21    22    2
     9    22    23    1
    10    23    24    2
    11    24    25    1
    12    25    30    1
    13    30    31    1
    14    31    32    1
    15    32    33    1
    16    33    34    1
    17    34    35    1
    18    25    26    2
    19    26    27    1
    20    27    28    1
    21    28    29    2
    22     1     4    1
    23     4     5    1
    24     4     6    1
    25     4     7    1
    26    10    12    1
    27    12    13   ar
    28    13    14   ar
    29    14    15   ar
    30    15    16   ar
    31    16    17    1
    32    16    18   ar
    33    29    21    1
    34    18    12   ar
    35    28    23    1
    36    35    30    1
    37     2     3    1
    38    17    19    1
@<TRIPOS>MOLECULE
*****
 35 38 0 0 0
SMALL
GASTEIGER

@<TRIPOS>ATOM
      1 C          63.6105   87.2479   15.6807 C.3     1  UNL1        0.1812
      2 O          64.0417   87.1805   14.2456 O.3     1  UNL1       -0.3784
      3 H          64.4272   86.3091   14.0644 H       1  UNL1        0.2106
      4 C          63.1792   87.3152   17.1157 C.3     1  UNL1        0.4197
      5 F          62.7479   87.3825   18.5509 F       1  UNL1       -0.1676
      6 F          62.4394   88.5893   16.8337 F       1  UNL1       -0.1676
      7 F          63.9189   86.0412   17.3978 F       1  UNL1       -0.1676
      8 C          64.0902   85.8422   15.8909 C.3     1  UNL1        0.0398
      9 C          65.2355   84.8492   14.4068 C.3     1  UNL1        0.0045
     10 C          63.8066   84.7908   14.8593 C.3     1  UNL1        0.0216
     11 C          62.3776   84.7324   15.3119 C.3     1  UNL1        0.0045
     12 C          63.5229   83.7394   13.8278 C.ar    1  UNL1       -0.0197
     13 C          62.4588   82.7119   14.0772 C.ar    1  UNL1       -0.0041
     14 C          62.1751   81.6605   13.0456 C.ar    1  UNL1        0.0028
     15 C          62.9555   81.6366   11.7648 C.ar    1  UNL1        0.0366
     16 C          64.0195   82.6640   11.5155 C.ar    1  UNL1        0.1334
     17 O          64.7999   82.6401   10.2346 O.3     1  UNL1       -0.5055
     18 C          64.3032   83.7154   12.5470 C.ar    1  UNL1        0.0323
     19 H          64.6227   81.9833    9.5903 H       1  UNL1        0.2922
     20 C          63.1307   88.6534   15.4706 C.3     1  UNL1        0.0811
     21 C          64.0130   89.6520   14.7818 C.2     1  UNL1        0.0614
     22 C          63.6481   90.4680   13.5772 C.2     1  UNL1        0.0163
     23 C          64.8247   91.3302   13.2276 C.2     1  UNL1        0.0264
     24 C          65.0428   92.3365   12.1368 C.2     1  UNL1        0.0903
     25 C          66.3530   93.0597   12.0346 C.2     1  UNL1        0.3192
     26 N          67.4451   92.7766   13.0232 N.2     1  UNL1       -0.0585
     27 C          67.2270   91.7703   14.1139 C.3     1  UNL1        0.3085
     28 C          65.9169   91.0471   14.2162 C.2     1  UNL1        0.1121
     29 N          65.4152   90.0099   15.1767 N.2     1  UNL1       -0.2495
     30 N          66.5711   94.0661   10.9439 N.pl3   1  UNL1       -0.1860
     31 C          67.2121   93.6470    9.6540 C.3     1  UNL1        0.2346
     32 C          67.4302   94.6533    8.5633 C.3     1  UNL1        0.1929
     33 O          67.0072   96.0787    8.7624 O.3     1  UNL1       -0.3449
     34 C          66.3663   96.4977   10.0521 C.3     1  UNL1        0.1929
     35 C          66.1482   95.4914   11.1429 C.3     1  UNL1        0.2346
@<TRIPOS>BOND
     1     9    10    1
     2    10    11    1
     3    10     8    1
     4     8     1    1
     5     1     2    1
     6     1    20    1
     7    20    21    1
     8    21    22    2
     9    22    23    1
    10    23    24    2
    11    24    25    1
    12    25    30    1
    13    30    31    1
    14    31    32    1
    15    32    33    1
    16    33    34    1
    17    34    35    1
    18    25    26    2
    19    26    27    1
    20    27    28    1
    21    28    29    2
    22     1     4    1
    23     4     5    1
    24     4     6    1
    25     4     7    1
    26    10    12    1
    27    12    13   ar
    28    13    14   ar
    29    14    15   ar
    30    15    16   ar
    31    16    17    1
    32    16    18   ar
    33    29    21    1
    34    18    12   ar
    35    28    23    1
    36    35    30    1
    37     2     3    1
    38    17    19    1
@<TRIPOS>MOLECULE
*****
 35 38 0 0 0
SMALL
GASTEIGER

@<TRIPOS>ATOM
      1 C          61.2055   87.8878    9.2212 C.3     1  UNL1        0.1812
      2 O          62.6292   87.9526    9.6890 O.3     1  UNL1       -0.3784
      3 H          63.0625   87.1004    9.5250 H       1  UNL1        0.2106
      4 C          59.7818   87.8230    8.7534 C.3     1  UNL1        0.4197
      5 F          58.3580   87.7583    8.2856 F       1  UNL1       -0.1676
      6 F          60.2325   87.1924    7.4691 F       1  UNL1       -0.1676
      7 F          59.3312   88.4536   10.0376 F       1  UNL1       -0.1676
      8 C          61.4128   86.4671    8.7868 C.3     1  UNL1        0.0398
      9 C          63.0550   85.1560    8.4962 C.3     1  UNL1        0.0045
     10 C          62.1817   85.5204    9.6601 C.3     1  UNL1        0.0216
     11 C          61.3085   85.8848   10.8240 C.3     1  UNL1        0.0045
     12 C          62.9507   84.5738   10.5333 C.ar    1  UNL1       -0.0197
     13 C          63.7777   83.4861    9.9144 C.ar    1  UNL1       -0.0041
     14 C          64.5466   82.5395   10.7876 C.ar    1  UNL1        0.0028
     15 C          64.4885   82.6805   12.2799 C.ar    1  UNL1        0.0366
     16 C          63.6615   83.7681   12.8988 C.ar    1  UNL1        0.1334
     17 O          63.6034   83.9092   14.3911 O.3     1  UNL1       -0.5055
     18 C          62.8926   84.7148   12.0255 C.ar    1  UNL1        0.0323
     19 H          64.0837   83.3178   14.9366 H       1  UNL1        0.2922
     20 C          60.9981   89.3085    9.6555 C.3     1  UNL1        0.0811
     21 C          62.1234   90.0704   10.2904 C.2     1  UNL1        0.0614
     22 C          62.6838   89.8358   11.6619 C.2     1  UNL1        0.0163
     23 C          63.7927   90.8212   11.8844 C.2     1  UNL1        0.0264
     24 C          64.7047   91.0593   13.0512 C.2     1  UNL1        0.0903
     25 C          65.7418   92.1410   12.9840 C.2     1  UNL1        0.3192
     26 N          65.8667   92.9846   11.7500 N.2     1  UNL1       -0.0585
     27 C          64.9547   92.7465   10.5832 C.3     1  UNL1        0.3085
     28 C          63.9177   91.6648   10.6504 C.2     1  UNL1        0.1121
     29 N          62.8860   91.2008    9.6652 N.2     1  UNL1       -0.2495
     30 N          66.6539   92.3791   14.1508 N.pl3   1  UNL1       -0.1860
     31 C          66.0842   92.5216   15.5312 C.3     1  UNL1        0.2346
     32 C          66.9963   92.7597   16.6980 C.3     1  UNL1        0.1929
     33 O          68.4780   92.8553   16.4844 O.3     1  UNL1       -0.3449
     34 C          69.0475   92.7128   15.1041 C.3     1  UNL1        0.1929
     35 C          68.1355   92.4748   13.9373 C.3     1  UNL1        0.2346
@<TRIPOS>BOND
     1     9    10    1
     2    10    11    1
     3    10     8    1
     4     8     1    1
     5     1     2    1
     6     1    20    1
     7    20    21    1
     8    21    22    2
     9    22    23    1
    10    23    24    2
    11    24    25    1
    12    25    30    1
    13    30    31    1
    14    31    32    1
    15    32    33    1
    16    33    34    1
    17    34    35    1
    18    25    26    2
    19    26    27    1
    20    27    28    1
    21    28    29    2
    22     1     4    1
    23     4     5    1
    24     4     6    1
    25     4     7    1
    26    10    12    1
    27    12    13   ar
    28    13    14   ar
    29    14    15   ar
    30    15    16   ar
    31    16    17    1
    32    16    18   ar
    33    29    21    1
    34    18    12   ar
    35    28    23    1
    36    35    30    1
    37     2     3    1
    38    17    19    1
