@<TRIPOS>MOLECULE
*****
 28 30 0 0 0
SMALL
GASTEIGER

@<TRIPOS>ATOM
      1 C          60.3576   86.3584    7.9315 C.2     1  UNL1        0.2296
      2 O          60.5171   85.2329    6.9529 O.2     1  UNL1       -0.2745
      3 N          61.4642   86.6800    8.8917 N.am    1  UNL1       -0.2543
      4 C          61.3046   87.8056    9.8702 C.ar    1  UNL1        0.0542
      5 C          60.0540   87.9139   10.6913 C.ar    1  UNL1        0.0149
      6 C          59.8944   89.0395   11.6699 C.ar    1  UNL1        0.0014
      7 C          60.9854   90.0568   11.8273 C.ar    1  UNL1        0.0032
      8 C          62.2360   89.9485   11.0062 C.ar    1  UNL1        0.0384
      9 C          62.3956   88.8229   10.0277 C.ar    1  UNL1        0.0180
     10 C          63.3271   90.9658   11.1637 C.ar    1  UNL1        0.1806
     11 N          64.1186   91.2238   12.4114 N.ar    1  UNL1       -0.1083
     12 N          65.0989   92.3212   12.1199 N.ar    1  UNL1       -0.0229
     13 N          64.9131   92.7414   10.6920 N.ar    1  UNL1       -0.0464
     14 N          63.8181   91.9037   10.1010 N.ar    1  UNL1       -0.2388
     15 H          63.4809   91.9597    9.1778 H       1  UNL1        0.1923
     16 C          59.0262   88.4755    7.2276 C.3     1  UNL1        0.0101
     17 C          59.0913   87.1625    7.9498 C.3     1  UNL1        0.0856
     18 C          62.7304   85.8761    8.8733 C.3     1  UNL1        0.1247
     19 C          62.9642   84.8212    9.9139 C.ar    1  UNL1       -0.0020
     20 C          63.7713   83.6023    9.5780 C.ar    1  UNL1       -0.0027
     21 C          64.0051   82.5476   10.6186 C.ar    1  UNL1        0.0036
     22 C          63.4319   82.7118   11.9950 C.ar    1  UNL1        0.0714
     23 C          62.6248   83.9307   12.3308 C.ar    1  UNL1        0.0036
     24 C          62.3910   84.9854   11.2903 C.ar    1  UNL1       -0.0027
     25 C          63.6657   81.6569   13.0356 C.3     1  UNL1        0.4186
     26 F          63.8996   80.6022   14.0761 F       1  UNL1       -0.1659
     27 F          63.0161   80.6372   12.1479 F       1  UNL1       -0.1659
     28 F          64.3153   82.6767   13.9232 F       1  UNL1       -0.1659
@<TRIPOS>BOND
     1    16    17    1
     2    17     1    1
     3     1     2    2
     4     1     3   am
     5     3    18    1
     6    18    19    1
     7    19    20   ar
     8    20    21   ar
     9    21    22   ar
    10    22    25    1
    11    25    26    1
    12    25    27    1
    13    25    28    1
    14    22    23   ar
    15    23    24   ar
    16     3     4    1
    17     4     5   ar
    18     5     6   ar
    19     6     7   ar
    20     7     8   ar
    21     8    10    1
    22    10    11   ar
    23    11    12   ar
    24    12    13   ar
    25    13    14   ar
    26     8     9   ar
    27    24    19   ar
    28     9     4   ar
    29    14    10   ar
    30    14    15    1
@<TRIPOS>MOLECULE
*****
 28 30 0 0 0
SMALL
GASTEIGER

@<TRIPOS>ATOM
      1 C          60.1524   88.4986   10.0592 C.2     1  UNL1        0.2296
      2 O          59.3431   87.4622    9.3377 O.2     1  UNL1       -0.2745
      3 N          61.6503   88.4187   10.0532 N.am    1  UNL1       -0.2543
      4 C          62.4596   89.4552   10.7748 C.ar    1  UNL1        0.0542
      5 C          63.2207   90.4876    9.9972 C.ar    1  UNL1        0.0149
      6 C          64.0300   91.5241   10.7188 C.ar    1  UNL1        0.0014
      7 C          64.0782   91.5281   12.2180 C.ar    1  UNL1        0.0032
      8 C          63.3170   90.4957   12.9956 C.ar    1  UNL1        0.0384
      9 C          62.5078   89.4592   12.2740 C.ar    1  UNL1        0.0180
     10 C          63.3652   90.4997   14.4948 C.ar    1  UNL1        0.1806
     11 N          63.9160   91.5972   15.3563 N.ar    1  UNL1       -0.1083
     12 N          63.7622   91.1827   16.7897 N.ar    1  UNL1       -0.0229
     13 N          63.1164   89.8291   16.8141 N.ar    1  UNL1       -0.0464
     14 N          62.8710   89.4070   15.3958 N.ar    1  UNL1       -0.2388
     15 H          62.4581   88.5612   15.1069 H       1  UNL1        0.1923
     16 C          59.0415   89.4318   12.2145 C.3     1  UNL1        0.0101
     17 C          59.4639   89.6151   10.7869 C.3     1  UNL1        0.0856
     18 C          62.3388   87.3023    9.3255 C.3     1  UNL1        0.1247
     19 C          62.6082   86.0038   10.0266 C.ar    1  UNL1       -0.0020
     20 C          62.2777   85.8546   11.4821 C.ar    1  UNL1       -0.0027
     21 C          62.5471   84.5562   12.1830 C.ar    1  UNL1        0.0036
     22 C          63.1471   83.4069   11.4285 C.ar    1  UNL1        0.0714
     23 C          63.4776   83.5561    9.9731 C.ar    1  UNL1        0.0036
     24 C          63.2082   84.8545    9.2721 C.ar    1  UNL1       -0.0027
     25 C          63.4165   82.1084   12.1296 C.3     1  UNL1        0.4186
     26 F          63.6860   80.8100   12.8306 F       1  UNL1       -0.1659
     27 F          61.9474   81.9392   12.3808 F       1  UNL1       -0.1659
     28 F          64.8856   82.2776   11.8784 F       1  UNL1       -0.1659
@<TRIPOS>BOND
     1    16    17    1
     2    17     1    1
     3     1     2    2
     4     1     3   am
     5     3    18    1
     6    18    19    1
     7    19    20   ar
     8    20    21   ar
     9    21    22   ar
    10    22    25    1
    11    25    26    1
    12    25    27    1
    13    25    28    1
    14    22    23   ar
    15    23    24   ar
    16     3     4    1
    17     4     5   ar
    18     5     6   ar
    19     6     7   ar
    20     7     8   ar
    21     8    10    1
    22    10    11   ar
    23    11    12   ar
    24    12    13   ar
    25    13    14   ar
    26     8     9   ar
    27    24    19   ar
    28     9     4   ar
    29    14    10   ar
    30    14    15    1
@<TRIPOS>MOLECULE
*****
 28 30 0 0 0
SMALL
GASTEIGER

@<TRIPOS>ATOM
      1 C          60.4763   88.2485    9.2075 C.2     1  UNL1        0.2296
      2 O          59.7753   89.5743    9.2371 O.2     1  UNL1       -0.2745
      3 N          61.3106   87.8150   10.3763 N.am    1  UNL1       -0.2543
      4 C          62.0115   86.4891   10.3466 C.ar    1  UNL1        0.0542
      5 C          62.6284   85.9952    9.0717 C.ar    1  UNL1        0.0149
      6 C          63.3293   84.6694    9.0422 C.ar    1  UNL1        0.0014
      7 C          63.4133   83.8375   10.2875 C.ar    1  UNL1        0.0032
      8 C          62.7964   84.3314   11.5624 C.ar    1  UNL1        0.0384
      9 C          62.0955   85.6572   11.5920 C.ar    1  UNL1        0.0180
     10 C          62.8804   83.4994   12.8077 C.ar    1  UNL1        0.1806
     11 N          63.5153   83.9121   14.1026 N.ar    1  UNL1       -0.1083
     12 N          63.3716   82.7765   15.0720 N.ar    1  UNL1       -0.0229
     13 N          62.6478   81.6620   14.3763 N.ar    1  UNL1       -0.0464
     14 N          62.3443   82.1088   12.9769 N.ar    1  UNL1       -0.2388
     15 H          61.8755   81.5818   12.2901 H       1  UNL1        0.1923
     16 C          59.0255   86.7098    7.6982 C.3     1  UNL1        0.0101
     17 C          60.3430   87.3562    8.0091 C.3     1  UNL1        0.0856
     18 C          61.4439   88.7072   11.5746 C.3     1  UNL1        0.1247
     19 C          62.5149   89.7568   11.6128 C.ar    1  UNL1       -0.0020
     20 C          63.2833   89.9986   12.8781 C.ar    1  UNL1       -0.0027
     21 C          64.3542   91.0481   12.9162 C.ar    1  UNL1        0.0036
     22 C          64.6568   91.8558   11.6890 C.ar    1  UNL1        0.0714
     23 C          63.8885   91.6140   10.4237 C.ar    1  UNL1        0.0036
     24 C          62.8175   90.5645   10.3856 C.ar    1  UNL1       -0.0027
     25 C          65.7278   92.9054   11.7272 C.3     1  UNL1        0.4186
     26 F          66.7988   93.9550   11.7653 F       1  UNL1       -0.1659
     27 F          66.4052   92.1736   12.8477 F       1  UNL1       -0.1659
     28 F          65.0505   93.6373   10.6067 F       1  UNL1       -0.1659
@<TRIPOS>BOND
     1    16    17    1
     2    17     1    1
     3     1     2    2
     4     1     3   am
     5     3    18    1
     6    18    19    1
     7    19    20   ar
     8    20    21   ar
     9    21    22   ar
    10    22    25    1
    11    25    26    1
    12    25    27    1
    13    25    28    1
    14    22    23   ar
    15    23    24   ar
    16     3     4    1
    17     4     5   ar
    18     5     6   ar
    19     6     7   ar
    20     7     8   ar
    21     8    10    1
    22    10    11   ar
    23    11    12   ar
    24    12    13   ar
    25    13    14   ar
    26     8     9   ar
    27    24    19   ar
    28     9     4   ar
    29    14    10   ar
    30    14    15    1
@<TRIPOS>MOLECULE
*****
 28 30 0 0 0
SMALL
GASTEIGER

@<TRIPOS>ATOM
      1 C          60.3639   89.6942   11.1250 C.2     1  UNL1        0.2296
      2 O          60.0052   91.1496   11.1796 O.2     1  UNL1       -0.2745
      3 N          61.7042   89.2713   10.6011 N.am    1  UNL1       -0.2543
      4 C          62.0629   87.8157   10.5465 C.ar    1  UNL1        0.0542
      5 C          62.0570   87.0905    9.2335 C.ar    1  UNL1        0.0149
      6 C          62.4156   85.6351    9.1790 C.ar    1  UNL1        0.0014
      7 C          62.7803   84.9049   10.4375 C.ar    1  UNL1        0.0032
      8 C          62.7863   85.6301   11.7505 C.ar    1  UNL1        0.0384
      9 C          62.4276   87.0855   11.8050 C.ar    1  UNL1        0.0180
     10 C          63.1509   84.8999   13.0090 C.ar    1  UNL1        0.1806
     11 N          62.3565   84.8845   14.2812 N.ar    1  UNL1       -0.1083
     12 N          63.0886   84.0319   15.2748 N.ar    1  UNL1       -0.0229
     13 N          64.3356   83.5203   14.6166 N.ar    1  UNL1       -0.0464
     14 N          64.3741   84.0567   13.2163 N.ar    1  UNL1       -0.2388
     15 H          65.0786   83.8855   12.5502 H       1  UNL1        0.1923
     16 C          58.4919   88.9513   12.7664 C.3     1  UNL1        0.0101
     17 C          59.3822   88.6617   11.5944 C.3     1  UNL1        0.0856
     18 C          62.6859   90.3037   10.1317 C.3     1  UNL1        0.1247
     19 C          63.6161   90.9546   11.1121 C.ar    1  UNL1       -0.0020
     20 C          64.5084   92.0758   10.6686 C.ar    1  UNL1       -0.0027
     21 C          65.4386   92.7266   11.6489 C.ar    1  UNL1        0.0036
     22 C          65.4765   92.2563   13.0728 C.ar    1  UNL1        0.0714
     23 C          64.5842   91.1352   13.5163 C.ar    1  UNL1        0.0036
     24 C          63.6540   90.4843   12.5359 C.ar    1  UNL1       -0.0027
     25 C          66.4067   92.9072   14.0532 C.3     1  UNL1        0.4186
     26 F          67.3369   93.5582   15.0334 F       1  UNL1       -0.1659
     27 F          66.4954   91.6224   14.8221 F       1  UNL1       -0.1659
     28 F          66.3180   94.1921   13.2842 F       1  UNL1       -0.1659
@<TRIPOS>BOND
     1    16    17    1
     2    17     1    1
     3     1     2    2
     4     1     3   am
     5     3    18    1
     6    18    19    1
     7    19    20   ar
     8    20    21   ar
     9    21    22   ar
    10    22    25    1
    11    25    26    1
    12    25    27    1
    13    25    28    1
    14    22    23   ar
    15    23    24   ar
    16     3     4    1
    17     4     5   ar
    18     5     6   ar
    19     6     7   ar
    20     7     8   ar
    21     8    10    1
    22    10    11   ar
    23    11    12   ar
    24    12    13   ar
    25    13    14   ar
    26     8     9   ar
    27    24    19   ar
    28     9     4   ar
    29    14    10   ar
    30    14    15    1
@<TRIPOS>MOLECULE
*****
 28 30 0 0 0
SMALL
GASTEIGER

@<TRIPOS>ATOM
      1 C          60.4150   89.4109   10.1105 C.2     1  UNL1        0.2296
      2 O          59.5250   88.6919    9.1404 O.2     1  UNL1       -0.2745
      3 N          61.8673   89.0482   10.2066 N.am    1  UNL1       -0.2543
      4 C          62.7573   89.7673   11.1767 C.ar    1  UNL1        0.0542
      5 C          62.7772   89.3599   12.6202 C.ar    1  UNL1        0.0149
      6 C          63.6671   90.0789   13.5902 C.ar    1  UNL1        0.0014
      7 C          64.5371   91.2054   13.1167 C.ar    1  UNL1        0.0032
      8 C          64.5172   91.6128   11.6733 C.ar    1  UNL1        0.0384
      9 C          63.6273   90.8937   10.7033 C.ar    1  UNL1        0.0180
     10 C          65.3872   92.7393   11.1998 C.ar    1  UNL1        0.1806
     11 N          66.8467   92.9123   11.5000 N.ar    1  UNL1       -0.1083
     12 N          67.3120   94.1705   10.8288 N.ar    1  UNL1       -0.0229
     13 N          66.1401   94.7750   10.1138 N.ar    1  UNL1       -0.0464
     14 N          64.9506   93.8905   10.3431 N.ar    1  UNL1       -0.2388
     15 H          64.0426   94.0394    9.9928 H       1  UNL1        0.1923
     16 C          59.0306   90.1340   12.1867 C.3     1  UNL1        0.0101
     17 C          59.8527   90.4927   10.9844 C.3     1  UNL1        0.0856
     18 C          62.4297   87.9665    9.3328 C.3     1  UNL1        0.1247
     19 C          62.5895   86.5753    9.8704 C.ar    1  UNL1       -0.0020
     20 C          62.2003   86.2690   11.2862 C.ar    1  UNL1       -0.0027
     21 C          62.3602   84.8778   11.8237 C.ar    1  UNL1        0.0036
     22 C          62.9093   83.7929   10.9454 C.ar    1  UNL1        0.0714
     23 C          63.2986   84.0992    9.5296 C.ar    1  UNL1        0.0036
     24 C          63.1387   85.4904    8.9921 C.ar    1  UNL1       -0.0027
     25 C          63.0692   82.4016   11.4830 C.3     1  UNL1        0.4186
     26 F          63.2290   81.0105   12.0207 F       1  UNL1       -0.1659
     27 F          63.8696   82.0254   10.2716 F       1  UNL1       -0.1659
     28 F          62.2688   82.7779   12.6945 F       1  UNL1       -0.1659
@<TRIPOS>BOND
     1    16    17    1
     2    17     1    1
     3     1     2    2
     4     1     3   am
     5     3    18    1
     6    18    19    1
     7    19    20   ar
     8    20    21   ar
     9    21    22   ar
    10    22    25    1
    11    25    26    1
    12    25    27    1
    13    25    28    1
    14    22    23   ar
    15    23    24   ar
    16     3     4    1
    17     4     5   ar
    18     5     6   ar
    19     6     7   ar
    20     7     8   ar
    21     8    10    1
    22    10    11   ar
    23    11    12   ar
    24    12    13   ar
    25    13    14   ar
    26     8     9   ar
    27    24    19   ar
    28     9     4   ar
    29    14    10   ar
    30    14    15    1
@<TRIPOS>MOLECULE
*****
 28 30 0 0 0
SMALL
GASTEIGER

@<TRIPOS>ATOM
      1 C          65.8651   91.7076   13.5328 C.2     1  UNL1        0.2296
      2 O          66.2492   92.7623   12.5378 O.2     1  UNL1       -0.2745
      3 N          64.4962   91.0960   13.4867 N.am    1  UNL1       -0.2543
      4 C          64.1122   90.0413   14.4817 C.ar    1  UNL1        0.0542
      5 C          63.5771   90.4375   15.8258 C.ar    1  UNL1        0.0149
      6 C          63.1930   89.3828   16.8208 C.ar    1  UNL1        0.0014
      7 C          63.3440   87.9318   16.4716 C.ar    1  UNL1        0.0032
      8 C          63.8791   87.5356   15.1276 C.ar    1  UNL1        0.0384
      9 C          64.2632   88.5903   14.1326 C.ar    1  UNL1        0.0180
     10 C          64.0301   86.0846   14.7784 C.ar    1  UNL1        0.1806
     11 N          63.6243   85.4420   13.4852 N.ar    1  UNL1       -0.1083
     12 N          63.9568   83.9817   13.5687 N.ar    1  UNL1       -0.0229
     13 N          64.5683   83.7218   14.9136 N.ar    1  UNL1       -0.0464
     14 N          64.6136   85.0214   15.6612 N.ar    1  UNL1       -0.2388
     15 H          64.9646   85.1535   16.5714 H       1  UNL1        0.1923
     16 C          67.8906   92.2205   15.0770 C.3     1  UNL1        0.0101
     17 C          66.8499   91.2645   14.5740 C.3     1  UNL1        0.0856
     18 C          63.5115   91.5391   12.4456 C.3     1  UNL1        0.1247
     19 C          62.6891   90.5226   11.7102 C.ar    1  UNL1       -0.0020
     20 C          61.3504   90.1107   12.2469 C.ar    1  UNL1       -0.0027
     21 C          60.5281   89.0944   11.5115 C.ar    1  UNL1        0.0036
     22 C          61.0446   88.4899   10.2396 C.ar    1  UNL1        0.0714
     23 C          62.3833   88.9018    9.7029 C.ar    1  UNL1        0.0036
     24 C          63.2056   89.9182   10.4383 C.ar    1  UNL1       -0.0027
     25 C          60.2222   87.4734    9.5042 C.3     1  UNL1        0.4186
     26 F          59.3999   86.4570    8.7690 F       1  UNL1       -0.1659
     27 F          59.8503   88.5106    8.4864 F       1  UNL1       -0.1659
     28 F          60.5941   86.4363   10.5220 F       1  UNL1       -0.1659
@<TRIPOS>BOND
     1    16    17    1
     2    17     1    1
     3     1     2    2
     4     1     3   am
     5     3    18    1
     6    18    19    1
     7    19    20   ar
     8    20    21   ar
     9    21    22   ar
    10    22    25    1
    11    25    26    1
    12    25    27    1
    13    25    28    1
    14    22    23   ar
    15    23    24   ar
    16     3     4    1
    17     4     5   ar
    18     5     6   ar
    19     6     7   ar
    20     7     8   ar
    21     8    10    1
    22    10    11   ar
    23    11    12   ar
    24    12    13   ar
    25    13    14   ar
    26     8     9   ar
    27    24    19   ar
    28     9     4   ar
    29    14    10   ar
    30    14    15    1
@<TRIPOS>MOLECULE
*****
 28 30 0 0 0
SMALL
GASTEIGER

@<TRIPOS>ATOM
      1 C          65.6781   92.3493   15.6644 C.2     1  UNL1        0.2296
      2 O          65.7621   92.2868   17.1607 O.2     1  UNL1       -0.2745
      3 N          64.5997   91.5978   14.9417 N.am    1  UNL1       -0.2543
      4 C          64.5157   91.6604   13.4454 C.ar    1  UNL1        0.0542
      5 C          63.3682   91.0103   12.7307 C.ar    1  UNL1        0.0149
      6 C          63.2843   91.0729   11.2344 C.ar    1  UNL1        0.0014
      7 C          64.3478   91.7855   10.4527 C.ar    1  UNL1        0.0032
      8 C          65.4953   92.4356   11.1673 C.ar    1  UNL1        0.0384
      9 C          65.5792   92.3731   12.6636 C.ar    1  UNL1        0.0180
     10 C          66.5588   93.1483   10.3856 C.ar    1  UNL1        0.1806
     11 N          68.0128   92.7828   10.3387 N.ar    1  UNL1       -0.1083
     12 N          68.7077   93.7602    9.4377 N.ar    1  UNL1       -0.0229
     13 N          67.6831   94.7298    8.9277 N.ar    1  UNL1       -0.0464
     14 N          66.3550   94.3516    9.5136 N.ar    1  UNL1       -0.2388
     15 H          65.4998   94.8123    9.3538 H       1  UNL1        0.1923
     16 C          67.9982   93.5074   15.5026 C.3     1  UNL1        0.0101
     17 C          66.6726   93.1633   14.8907 C.3     1  UNL1        0.0856
     18 C          63.6052   90.7839   15.7154 C.3     1  UNL1        0.1247
     19 C          63.6824   89.2860   15.6927 C.ar    1  UNL1       -0.0020
     20 C          63.0784   88.4869   16.8093 C.ar    1  UNL1       -0.0027
     21 C          63.1556   86.9891   16.7866 C.ar    1  UNL1        0.0036
     22 C          63.8367   86.2904   15.6474 C.ar    1  UNL1        0.0714
     23 C          64.4406   87.0894   14.5308 C.ar    1  UNL1        0.0036
     24 C          64.3635   88.5872   14.5535 C.ar    1  UNL1       -0.0027
     25 C          63.9138   84.7925   15.6247 C.3     1  UNL1        0.4186
     26 F          63.9909   83.2946   15.6021 F       1  UNL1       -0.1659
     27 F          65.2163   84.8707   14.8849 F       1  UNL1       -0.1659
     28 F          62.6113   84.7143   16.3645 F       1  UNL1       -0.1659
@<TRIPOS>BOND
     1    16    17    1
     2    17     1    1
     3     1     2    2
     4     1     3   am
     5     3    18    1
     6    18    19    1
     7    19    20   ar
     8    20    21   ar
     9    21    22   ar
    10    22    25    1
    11    25    26    1
    12    25    27    1
    13    25    28    1
    14    22    23   ar
    15    23    24   ar
    16     3     4    1
    17     4     5   ar
    18     5     6   ar
    19     6     7   ar
    20     7     8   ar
    21     8    10    1
    22    10    11   ar
    23    11    12   ar
    24    12    13   ar
    25    13    14   ar
    26     8     9   ar
    27    24    19   ar
    28     9     4   ar
    29    14    10   ar
    30    14    15    1
@<TRIPOS>MOLECULE
*****
 28 30 0 0 0
SMALL
GASTEIGER

@<TRIPOS>ATOM
      1 C          62.0796   87.0167   10.0702 C.2     1  UNL1        0.2296
      2 O          61.4418   87.9173    9.0543 O.2     1  UNL1       -0.2745
      3 N          62.3095   87.5079   11.4687 N.am    1  UNL1       -0.2543
      4 C          62.9473   86.6072   12.4846 C.ar    1  UNL1        0.0542
      5 C          63.8751   87.1781   13.5157 C.ar    1  UNL1        0.0149
      6 C          64.5129   86.2774   14.5315 C.ar    1  UNL1        0.0014
      7 C          64.2228   84.8057   14.5163 C.ar    1  UNL1        0.0032
      8 C          63.2950   84.2348   13.4852 C.ar    1  UNL1        0.0384
      9 C          62.6573   85.1355   12.4694 C.ar    1  UNL1        0.0180
     10 C          63.0050   82.7632   13.4700 C.ar    1  UNL1        0.1806
     11 N          63.0115   81.8758   12.2607 N.ar    1  UNL1       -0.1083
     12 N          62.6680   80.4847   12.7046 N.ar    1  UNL1       -0.0229
     13 N          62.4492   80.5125   14.1883 N.ar    1  UNL1       -0.0464
     14 N          62.6574   81.9207   14.6613 N.ar    1  UNL1       -0.2388
     15 H          62.5796   82.2365   15.5905 H       1  UNL1        0.1923
     16 C          63.0115   85.3490    8.3094 C.3     1  UNL1        0.0101
     17 C          62.4876   85.6248    9.6876 C.3     1  UNL1        0.0856
     18 C          61.9016   88.8997   11.8514 C.3     1  UNL1        0.1247
     19 C          62.8870   90.0257   11.7461 C.ar    1  UNL1       -0.0020
     20 C          63.1184   90.6989   10.4258 C.ar    1  UNL1       -0.0027
     21 C          64.1038   91.8249   10.3206 C.ar    1  UNL1        0.0036
     22 C          64.8578   92.2777   11.5358 C.ar    1  UNL1        0.0714
     23 C          64.6264   91.6046   12.8561 C.ar    1  UNL1        0.0036
     24 C          63.6410   90.4786   12.9612 C.ar    1  UNL1       -0.0027
     25 C          65.8432   93.4038   11.4305 C.3     1  UNL1        0.4186
     26 F          66.8286   94.5298   11.3253 F       1  UNL1       -0.1659
     27 F          65.8089   93.2941    9.9349 F       1  UNL1       -0.1659
     28 F          65.8775   93.5135   12.9261 F       1  UNL1       -0.1659
@<TRIPOS>BOND
     1    16    17    1
     2    17     1    1
     3     1     2    2
     4     1     3   am
     5     3    18    1
     6    18    19    1
     7    19    20   ar
     8    20    21   ar
     9    21    22   ar
    10    22    25    1
    11    25    26    1
    12    25    27    1
    13    25    28    1
    14    22    23   ar
    15    23    24   ar
    16     3     4    1
    17     4     5   ar
    18     5     6   ar
    19     6     7   ar
    20     7     8   ar
    21     8    10    1
    22    10    11   ar
    23    11    12   ar
    24    12    13   ar
    25    13    14   ar
    26     8     9   ar
    27    24    19   ar
    28     9     4   ar
    29    14    10   ar
    30    14    15    1
@<TRIPOS>MOLECULE
*****
 28 30 0 0 0
SMALL
GASTEIGER

@<TRIPOS>ATOM
      1 C          63.1944   81.8101   11.9003 C.2     1  UNL1        0.2296
      2 O          62.9686   81.0642   10.6187 O.2     1  UNL1       -0.2745
      3 N          63.7174   83.2156   11.8679 N.am    1  UNL1       -0.2543
      4 C          63.9432   83.9615   13.1496 C.ar    1  UNL1        0.0542
      5 C          64.3694   83.2216   14.3829 C.ar    1  UNL1        0.0149
      6 C          64.5952   83.9675   15.6645 C.ar    1  UNL1        0.0014
      7 C          64.3949   85.4532   15.7129 C.ar    1  UNL1        0.0032
      8 C          63.9688   86.1931   14.4797 C.ar    1  UNL1        0.0384
      9 C          63.7430   85.4473   13.1980 C.ar    1  UNL1        0.0180
     10 C          63.7685   87.6789   14.5281 C.ar    1  UNL1        0.1806
     11 N          63.5216   88.4956   15.7618 N.ar    1  UNL1       -0.1083
     12 N          63.3804   89.9303   15.3474 N.ar    1  UNL1       -0.0229
     13 N          63.5401   90.0004   13.8576 N.ar    1  UNL1       -0.0464
     14 N          63.7800   88.6089   13.3512 N.ar    1  UNL1       -0.2388
     15 H          63.9202   88.3513   12.4114 H       1  UNL1        0.1923
     16 C          61.4886   81.1006   13.7270 C.3     1  UNL1        0.0101
     17 C          62.8974   81.1504   13.2144 C.3     1  UNL1        0.0856
     18 C          64.0145   83.8752   10.5540 C.3     1  UNL1        0.1247
     19 C          62.9782   84.7379    9.8965 C.ar    1  UNL1       -0.0020
     20 C          62.9193   84.8312    8.4007 C.ar    1  UNL1       -0.0027
     21 C          61.8831   85.6939    7.7433 C.ar    1  UNL1        0.0036
     22 C          60.9058   86.4632    8.5819 C.ar    1  UNL1        0.0714
     23 C          60.9648   86.3698   10.0778 C.ar    1  UNL1        0.0036
     24 C          62.0010   85.5072   10.7351 C.ar    1  UNL1       -0.0027
     25 C          59.8696   87.3258    7.9245 C.3     1  UNL1        0.4186
     26 F          58.8334   88.1885    7.2671 F       1  UNL1       -0.1659
     27 F          59.1968   86.1015    7.3783 F       1  UNL1       -0.1659
     28 F          60.5424   88.5501    8.4706 F       1  UNL1       -0.1659
@<TRIPOS>BOND
     1    16    17    1
     2    17     1    1
     3     1     2    2
     4     1     3   am
     5     3    18    1
     6    18    19    1
     7    19    20   ar
     8    20    21   ar
     9    21    22   ar
    10    22    25    1
    11    25    26    1
    12    25    27    1
    13    25    28    1
    14    22    23   ar
    15    23    24   ar
    16     3     4    1
    17     4     5   ar
    18     5     6   ar
    19     6     7   ar
    20     7     8   ar
    21     8    10    1
    22    10    11   ar
    23    11    12   ar
    24    12    13   ar
    25    13    14   ar
    26     8     9   ar
    27    24    19   ar
    28     9     4   ar
    29    14    10   ar
    30    14    15    1
