@<TRIPOS>MOLECULE
*****
 39 42 0 0 0
SMALL
GASTEIGER

@<TRIPOS>ATOM
      1 C          62.8456   83.1798   12.7377 C.ar    1  UNL1        0.0512
      2 C          62.3459   84.1345   11.6942 C.ar    1  UNL1        0.0145
      3 C          62.5984   85.6058   11.8412 C.ar    1  UNL1        0.0005
      4 C          63.3506   86.1224   13.0317 C.ar    1  UNL1        0.0182
      5 C          63.8503   85.1677   14.0751 C.ar    1  UNL1       -0.0211
      6 C          63.5978   83.6965   13.9281 C.ar    1  UNL1        0.0103
      7 C          64.5564   85.9642   15.1321 C.3     1  UNL1        0.0307
      8 C          64.4931   87.4112   14.7418 C.3     1  UNL1        0.0583
      9 C          63.7478   87.5089   13.4436 C.3     1  UNL1        0.2242
     10 O          63.0026   87.6066   12.1455 O.3     1  UNL1       -0.4283
     11 C          62.9392   89.0536   11.7552 C.2     1  UNL1        0.4117
     12 O          62.2847   89.6069   10.5242 O.2     1  UNL1       -0.2257
     13 N          63.6453   89.8501   12.8121 N.am    1  UNL1       -0.1834
     14 C          64.1450   88.8954   13.8555 C.2     1  UNL1        0.2747
     15 O          64.9081   89.2628   15.0937 O.2     1  UNL1       -0.2702
     16 C          63.0643   78.8390    9.8900 C.3     1  UNL1        0.1122
     17 N          62.7025   79.5381   11.1669 N.am    1  UNL1       -0.2869
     18 C          62.9549   81.0094   11.3139 C.2     1  UNL1        0.3045
     19 O          63.5693   81.7815   10.1840 O.2     1  UNL1       -0.2525
     20 N          62.5931   81.7086   12.5906 N.am    1  UNL1       -0.2683
     21 H          62.2993   79.0314   11.9084 H       1  UNL1        0.1510
     22 H          62.1899   81.2018   13.3322 H       1  UNL1        0.1564
     23 C          63.8209   91.3398   12.8234 C.3     1  UNL1        0.1893
     24 C          64.8193   91.9843   11.9082 C.2     1  UNL1        0.2469
     25 O          64.5504   92.0528   10.4341 O.2     1  UNL1       -0.2730
     26 N          66.0865   92.5604   12.4670 N.am    1  UNL1       -0.2678
     27 C          66.3553   92.4919   13.9411 C.3     1  UNL1        0.1708
     28 C          65.2156   92.3467   14.9054 C.3     1  UNL1        0.0306
     29 C          67.7639   92.5687   14.4509 C.3     1  UNL1        0.4138
     30 F          69.1726   92.6454   14.9607 F       1  UNL1       -0.1682
     31 F          67.4797   93.9217   15.0327 F       1  UNL1       -0.1682
     32 F          68.0482   91.2157   13.8691 F       1  UNL1       -0.1682
     33 C          67.0849   93.2050   11.5516 C.3     1  UNL1        0.1204
     34 C          66.7024   94.4217   10.7623 C.ar    1  UNL1       -0.0023
     35 C          67.0014   94.4877    9.2939 C.ar    1  UNL1       -0.0026
     36 C          66.6189   95.7045    8.5045 C.ar    1  UNL1       -0.0003
     37 C          65.9374   96.8554    9.1836 C.ar    1  UNL1       -0.0000
     38 C          65.6384   96.7894   10.6520 C.ar    1  UNL1       -0.0003
     39 C          66.0209   95.5726   11.4413 C.ar    1  UNL1       -0.0026
@<TRIPOS>BOND
     1    16    17    1
     2    17    18   am
     3    18    19    2
     4    18    20   am
     5    20     1    1
     6     1     2   ar
     7     2     3   ar
     8     3     4   ar
     9     4     5   ar
    10     5     6   ar
    11     5     7    1
    12     7     8    1
    13     9     8    1
    14     9    10    1
    15    10    11    1
    16    11    12    2
    17    11    13   am
    18    13    23    1
    19    23    24    1
    20    24    25    2
    21    24    26   am
    22    26    33    1
    23    33    34    1
    24    34    35   ar
    25    35    36   ar
    26    36    37   ar
    27    37    38   ar
    28    38    39   ar
    29    26    27    1
    30    27    28    1
    31    27    29    1
    32    29    30    1
    33    29    31    1
    34    29    32    1
    35    13    14   am
    36    14    15    2
    37     6     1   ar
    38    14     9    1
    39     9     4    1
    40    39    34   ar
    41    17    21    1
    42    20    22    1
@<TRIPOS>MOLECULE
*****
 39 42 0 0 0
SMALL
GASTEIGER

@<TRIPOS>ATOM
      1 C          62.6484   83.4615   12.4479 C.ar    1  UNL1        0.0512
      2 C          63.3955   84.1751   13.5354 C.ar    1  UNL1        0.0145
      3 C          63.5670   85.6640   13.4750 C.ar    1  UNL1        0.0005
      4 C          62.9914   86.4394   12.3273 C.ar    1  UNL1        0.0182
      5 C          62.2442   85.7258   11.2398 C.ar    1  UNL1       -0.0211
      6 C          62.0728   84.2368   11.3002 C.ar    1  UNL1        0.0103
      7 C          61.7914   86.7486   10.2403 C.3     1  UNL1        0.0307
      8 C          62.2587   88.0943   10.7101 C.3     1  UNL1        0.0583
      9 C          63.0003   87.9032   11.9999 C.3     1  UNL1        0.2242
     10 O          63.7419   87.7121   13.2897 O.3     1  UNL1       -0.4283
     11 C          64.2092   89.0578   13.7595 C.2     1  UNL1        0.4117
     12 O          64.9919   89.3325   15.0092 O.2     1  UNL1       -0.2257
     13 N          63.7564   90.0806   12.7600 N.am    1  UNL1       -0.1834
     14 C          63.0093   89.3670   11.6726 C.2     1  UNL1        0.2747
     15 O          62.3813   90.0052   10.4690 O.2     1  UNL1       -0.2702
     16 C          63.0698   78.7890   10.2140 C.3     1  UNL1        0.1122
     17 N          62.6876   79.6363   11.3913 N.am    1  UNL1       -0.2869
     18 C          62.8591   81.1252   11.3310 C.2     1  UNL1        0.3045
     19 O          63.4128   81.7669   10.0933 O.2     1  UNL1       -0.2525
     20 N          62.4769   81.9725   12.5083 N.am    1  UNL1       -0.2683
     21 H          62.3242   79.2152   12.2036 H       1  UNL1        0.1510
     22 H          62.1135   81.5514   13.3206 H       1  UNL1        0.1564
     23 C          64.0068   91.5576   12.8349 C.3     1  UNL1        0.1893
     24 C          64.9458   92.2094   11.8636 C.2     1  UNL1        0.2469
     25 O          64.5729   92.3129   10.4144 O.2     1  UNL1       -0.2730
     26 N          66.2577   92.7576   12.3415 N.am    1  UNL1       -0.2678
     27 C          66.6306   92.6541   13.7907 C.3     1  UNL1        0.1708
     28 C          65.5638   92.6955   14.8445 C.3     1  UNL1        0.0306
     29 C          68.0702   92.5093   14.1862 C.3     1  UNL1        0.4138
     30 F          69.5099   92.3644   14.5817 F       1  UNL1       -0.1682
     31 F          67.9328   93.6791   15.1150 F       1  UNL1       -0.1682
     32 F          68.2077   91.3395   13.2574 F       1  UNL1       -0.1682
     33 C          67.1967   93.4094   11.3701 C.3     1  UNL1        0.1204
     34 C          66.7251   94.5553   10.5250 C.ar    1  UNL1       -0.0023
     35 C          65.7784   95.5688   11.0964 C.ar    1  UNL1       -0.0026
     36 C          65.3067   96.7148   10.2512 C.ar    1  UNL1       -0.0003
     37 C          65.7818   96.8472    8.8346 C.ar    1  UNL1       -0.0000
     38 C          66.7285   95.8337    8.2632 C.ar    1  UNL1       -0.0003
     39 C          67.2001   94.6878    9.1084 C.ar    1  UNL1       -0.0026
@<TRIPOS>BOND
     1    16    17    1
     2    17    18   am
     3    18    19    2
     4    18    20   am
     5    20     1    1
     6     1     2   ar
     7     2     3   ar
     8     3     4   ar
     9     4     5   ar
    10     5     6   ar
    11     5     7    1
    12     7     8    1
    13     9     8    1
    14     9    10    1
    15    10    11    1
    16    11    12    2
    17    11    13   am
    18    13    23    1
    19    23    24    1
    20    24    25    2
    21    24    26   am
    22    26    33    1
    23    33    34    1
    24    34    35   ar
    25    35    36   ar
    26    36    37   ar
    27    37    38   ar
    28    38    39   ar
    29    26    27    1
    30    27    28    1
    31    27    29    1
    32    29    30    1
    33    29    31    1
    34    29    32    1
    35    13    14   am
    36    14    15    2
    37     6     1   ar
    38    14     9    1
    39     9     4    1
    40    39    34   ar
    41    17    21    1
    42    20    22    1
@<TRIPOS>MOLECULE
*****
 39 42 0 0 0
SMALL
GASTEIGER

@<TRIPOS>ATOM
      1 C          63.0217   83.4758   11.8179 C.ar    1  UNL1        0.0512
      2 C          63.6797   84.0832   13.0213 C.ar    1  UNL1        0.0145
      3 C          63.7169   85.5739   13.1834 C.ar    1  UNL1        0.0005
      4 C          63.0961   86.4573   12.1421 C.ar    1  UNL1        0.0182
      5 C          62.4381   85.8499   10.9388 C.ar    1  UNL1       -0.0211
      6 C          62.4010   84.3592   10.7767 C.ar    1  UNL1        0.0103
      7 C          61.9143   86.9658   10.0841 C.3     1  UNL1        0.0307
      8 C          62.2486   88.2629   10.7593 C.3     1  UNL1        0.0583
      9 C          62.9789   87.9486   12.0312 C.3     1  UNL1        0.2242
     10 O          63.7093   87.6343   13.3032 O.3     1  UNL1       -0.4283
     11 C          64.0435   88.9313   13.9784 C.2     1  UNL1        0.4117
     12 O          64.7734   89.0854   15.2797 O.2     1  UNL1       -0.2257
     13 N          63.5198   90.0472   13.1238 N.am    1  UNL1       -0.1834
     14 C          62.8618   89.4399   11.9204 C.2     1  UNL1        0.2747
     15 O          62.2024   90.1918   10.8024 O.2     1  UNL1       -0.2702
     16 C          61.9773   78.7644   13.7445 C.3     1  UNL1        0.1122
     17 N          62.4624   79.6293   12.6190 N.am    1  UNL1       -0.2869
     18 C          62.4995   81.1201   12.7812 C.2     1  UNL1        0.3045
     19 O          62.0516   81.7459   14.0688 O.2     1  UNL1       -0.2525
     20 N          62.9846   81.9850   11.6558 N.am    1  UNL1       -0.2683
     21 H          62.7563   79.2186   11.7740 H       1  UNL1        0.1510
     22 H          63.2786   81.5743   10.8107 H       1  UNL1        0.1564
     23 C          63.6339   91.5132   13.4205 C.3     1  UNL1        0.1893
     24 C          64.6995   92.3324   12.7546 C.2     1  UNL1        0.2469
     25 O          64.5726   92.6913   11.3038 O.2     1  UNL1       -0.2730
     26 N          65.8918   92.7928   13.5397 N.am    1  UNL1       -0.2678
     27 C          66.0187   92.4340   14.9906 C.3     1  UNL1        0.1708
     28 C          64.7914   92.3237   15.8460 C.3     1  UNL1        0.0306
     29 C          67.3728   92.1854   15.5861 C.3     1  UNL1        0.4138
     30 F          68.7269   91.9368   16.1815 F       1  UNL1       -0.1682
     31 F          67.4679   90.8932   14.8304 F       1  UNL1       -0.1682
     32 F          67.2777   93.4776   16.3417 F       1  UNL1       -0.1682
     33 C          66.9574   93.6121   12.8737 C.3     1  UNL1        0.1204
     34 C          67.3733   93.3006   11.4667 C.ar    1  UNL1       -0.0023
     35 C          67.1983   94.3281   10.3880 C.ar    1  UNL1       -0.0026
     36 C          67.6141   94.0166    8.9808 C.ar    1  UNL1       -0.0003
     37 C          68.2051   92.6776    8.6524 C.ar    1  UNL1       -0.0000
     38 C          68.3801   91.6501    9.7311 C.ar    1  UNL1       -0.0003
     39 C          67.9642   91.9616   11.1382 C.ar    1  UNL1       -0.0026
@<TRIPOS>BOND
     1    16    17    1
     2    17    18   am
     3    18    19    2
     4    18    20   am
     5    20     1    1
     6     1     2   ar
     7     2     3   ar
     8     3     4   ar
     9     4     5   ar
    10     5     6   ar
    11     5     7    1
    12     7     8    1
    13     9     8    1
    14     9    10    1
    15    10    11    1
    16    11    12    2
    17    11    13   am
    18    13    23    1
    19    23    24    1
    20    24    25    2
    21    24    26   am
    22    26    33    1
    23    33    34    1
    24    34    35   ar
    25    35    36   ar
    26    36    37   ar
    27    37    38   ar
    28    38    39   ar
    29    26    27    1
    30    27    28    1
    31    27    29    1
    32    29    30    1
    33    29    31    1
    34    29    32    1
    35    13    14   am
    36    14    15    2
    37     6     1   ar
    38    14     9    1
    39     9     4    1
    40    39    34   ar
    41    17    21    1
    42    20    22    1
@<TRIPOS>MOLECULE
*****
 39 42 0 0 0
SMALL
GASTEIGER

@<TRIPOS>ATOM
      1 C          63.2655   82.8404   10.8753 C.ar    1  UNL1        0.0512
      2 C          62.7877   84.0881   10.1937 C.ar    1  UNL1        0.0145
      3 C          62.9057   85.4134   10.8864 C.ar    1  UNL1        0.0005
      4 C          63.5014   85.4908   12.2608 C.ar    1  UNL1        0.0182
      5 C          63.9793   84.2430   12.9424 C.ar    1  UNL1       -0.0211
      6 C          63.8613   82.9178   12.2497 C.ar    1  UNL1        0.0103
      7 C          64.5189   84.6276   14.2882 C.3     1  UNL1        0.0307
      8 C          64.3745   86.1131   14.4382 C.3     1  UNL1        0.0583
      9 C          63.7457   86.6465   13.1852 C.3     1  UNL1        0.2242
     10 O          63.1169   87.1800   11.9322 O.3     1  UNL1       -0.4283
     11 C          62.9725   88.6655   12.0822 C.2     1  UNL1        0.4117
     12 O          62.3907   89.6020   11.0651 O.2     1  UNL1       -0.2257
     13 N          63.5121   89.0501   13.4279 N.am    1  UNL1       -0.1834
     14 C          63.9899   87.8023   14.1095 C.2     1  UNL1        0.2747
     15 O          64.6042   87.7240   15.4758 O.2     1  UNL1       -0.2702
     16 C          62.5800   77.6942   11.0927 C.3     1  UNL1        0.1122
     17 N          62.8048   78.9421   10.2912 N.am    1  UNL1       -0.2869
     18 C          62.9228   80.2673   10.9840 C.2     1  UNL1        0.3045
     19 O          62.8159   80.3447   12.4782 O.2     1  UNL1       -0.2525
     20 N          63.1476   81.5151   10.1826 N.am    1  UNL1       -0.2683
     21 H          62.8749   78.8913    9.3106 H       1  UNL1        0.1510
     22 H          63.2177   81.4644    9.2019 H       1  UNL1        0.1564
     23 C          63.5646   90.4387   13.9928 C.3     1  UNL1        0.1893
     24 C          64.2299   91.5383   13.2194 C.2     1  UNL1        0.2469
     25 O          63.8172   91.8157   11.8042 O.2     1  UNL1       -0.2730
     26 N          65.3079   92.3606   13.8611 N.am    1  UNL1       -0.2678
     27 C          65.7206   92.0833   15.2763 C.3     1  UNL1        0.1708
     28 C          64.6781   91.8592   16.3313 C.3     1  UNL1        0.0306
     29 C          67.1757   92.0300   15.6364 C.3     1  UNL1        0.4138
     30 F          68.6308   91.9767   15.9966 F       1  UNL1       -0.1682
     31 F          67.0237   93.2894   16.4369 F       1  UNL1       -0.1682
     32 F          67.3277   90.7706   14.8360 F       1  UNL1       -0.1682
     33 C          65.9732   93.4603   13.0876 C.3     1  UNL1        0.1204
     34 C          66.7389   93.1411   11.8381 C.ar    1  UNL1       -0.0023
     35 C          67.7259   92.0116   11.8312 C.ar    1  UNL1       -0.0026
     36 C          68.4917   91.6923   10.5815 C.ar    1  UNL1       -0.0003
     37 C          68.2705   92.5026    9.3387 C.ar    1  UNL1       -0.0000
     38 C          67.2836   93.6321    9.3456 C.ar    1  UNL1       -0.0003
     39 C          66.5178   93.9513   10.5952 C.ar    1  UNL1       -0.0026
@<TRIPOS>BOND
     1    16    17    1
     2    17    18   am
     3    18    19    2
     4    18    20   am
     5    20     1    1
     6     1     2   ar
     7     2     3   ar
     8     3     4   ar
     9     4     5   ar
    10     5     6   ar
    11     5     7    1
    12     7     8    1
    13     9     8    1
    14     9    10    1
    15    10    11    1
    16    11    12    2
    17    11    13   am
    18    13    23    1
    19    23    24    1
    20    24    25    2
    21    24    26   am
    22    26    33    1
    23    33    34    1
    24    34    35   ar
    25    35    36   ar
    26    36    37   ar
    27    37    38   ar
    28    38    39   ar
    29    26    27    1
    30    27    28    1
    31    27    29    1
    32    29    30    1
    33    29    31    1
    34    29    32    1
    35    13    14   am
    36    14    15    2
    37     6     1   ar
    38    14     9    1
    39     9     4    1
    40    39    34   ar
    41    17    21    1
    42    20    22    1
@<TRIPOS>MOLECULE
*****
 39 42 0 0 0
SMALL
GASTEIGER

@<TRIPOS>ATOM
      1 C          63.0187   82.7067   12.9898 C.ar    1  UNL1        0.0512
      2 C          62.3846   83.4888   11.8779 C.ar    1  UNL1        0.0145
      3 C          62.5136   84.9829   11.8435 C.ar    1  UNL1        0.0005
      4 C          63.2767   85.6948   12.9209 C.ar    1  UNL1        0.0182
      5 C          63.9107   84.9127   14.0327 C.ar    1  UNL1       -0.0211
      6 C          63.7818   83.4187   14.0672 C.ar    1  UNL1        0.0103
      7 C          64.5965   85.8823   14.9491 C.3     1  UNL1        0.0307
      8 C          64.3863   87.2637   14.4035 C.3     1  UNL1        0.0583
      9 C          63.5706   87.1478   13.1500 C.3     1  UNL1        0.2242
     10 O          62.7548   87.0319   11.8965 O.3     1  UNL1       -0.4283
     11 C          62.5446   88.4132   11.3510 C.2     1  UNL1        0.4117
     12 O          61.7824   88.7635   10.1074 O.2     1  UNL1       -0.2257
     13 N          63.2303   89.3828   12.2672 N.am    1  UNL1       -0.1834
     14 C          63.8644   88.6007   13.3791 C.2     1  UNL1        0.2747
     15 O          64.6538   89.1714   14.5198 O.2     1  UNL1       -0.2702
     16 C          62.7790   78.1521   10.5002 C.3     1  UNL1        0.1122
     17 N          62.7699   78.9353   11.7795 N.am    1  UNL1       -0.2869
     18 C          62.8988   80.4294   11.7450 C.2     1  UNL1        0.3045
     19 O          63.0369   81.1402   10.4313 O.2     1  UNL1       -0.2525
     20 N          62.8897   81.2127   13.0242 N.am    1  UNL1       -0.2683
     21 H          62.6792   78.4688   12.6417 H       1  UNL1        0.1510
     22 H          62.7991   80.7462   13.8864 H       1  UNL1        0.1564
     23 C          63.2743   90.8729   12.1008 C.3     1  UNL1        0.1893
     24 C          64.0572   91.7126   13.0662 C.2     1  UNL1        0.2469
     25 O          63.8223   91.5753   14.5413 O.2     1  UNL1       -0.2730
     26 N          65.0749   92.6896   12.5565 N.am    1  UNL1       -0.2678
     27 C          65.3097   92.8269   11.0814 C.3     1  UNL1        0.1708
     28 C          64.4202   92.1088   10.1103 C.3     1  UNL1        0.0306
     29 C          66.4340   93.6824   10.5774 C.3     1  UNL1        0.4138
     30 F          67.5584   94.5379   10.0734 F       1  UNL1       -0.1682
     31 F          65.5446   94.8886   10.6407 F       1  UNL1       -0.1682
     32 F          67.3234   92.4762   10.5141 F       1  UNL1       -0.1682
     33 C          65.8577   93.5294   13.5220 C.3     1  UNL1        0.1204
     34 C          67.0129   92.9324   14.2696 C.ar    1  UNL1       -0.0023
     35 C          68.1531   92.3124   13.5176 C.ar    1  UNL1       -0.0026
     36 C          69.3084   91.7154   14.2652 C.ar    1  UNL1       -0.0003
     37 C          69.3235   91.7385   15.7650 C.ar    1  UNL1       -0.0000
     38 C          68.1833   92.3585   16.5170 C.ar    1  UNL1       -0.0003
     39 C          67.0281   92.9554   15.7694 C.ar    1  UNL1       -0.0026
@<TRIPOS>BOND
     1    16    17    1
     2    17    18   am
     3    18    19    2
     4    18    20   am
     5    20     1    1
     6     1     2   ar
     7     2     3   ar
     8     3     4   ar
     9     4     5   ar
    10     5     6   ar
    11     5     7    1
    12     7     8    1
    13     9     8    1
    14     9    10    1
    15    10    11    1
    16    11    12    2
    17    11    13   am
    18    13    23    1
    19    23    24    1
    20    24    25    2
    21    24    26   am
    22    26    33    1
    23    33    34    1
    24    34    35   ar
    25    35    36   ar
    26    36    37   ar
    27    37    38   ar
    28    38    39   ar
    29    26    27    1
    30    27    28    1
    31    27    29    1
    32    29    30    1
    33    29    31    1
    34    29    32    1
    35    13    14   am
    36    14    15    2
    37     6     1   ar
    38    14     9    1
    39     9     4    1
    40    39    34   ar
    41    17    21    1
    42    20    22    1
@<TRIPOS>MOLECULE
*****
 39 42 0 0 0
SMALL
GASTEIGER

@<TRIPOS>ATOM
      1 C          59.5107   89.2559    7.7109 C.ar    1  UNL1        0.0512
      2 C          60.1295   90.1542    8.7405 C.ar    1  UNL1        0.0145
      3 C          60.9692   89.5704    9.8378 C.ar    1  UNL1        0.0005
      4 C          61.1900   88.0883    9.9056 C.ar    1  UNL1        0.0182
      5 C          60.5713   87.1900    8.8760 C.ar    1  UNL1       -0.0211
      6 C          59.7316   87.7738    7.7786 C.ar    1  UNL1        0.0103
      7 C          60.9624   85.7780    9.1975 C.3     1  UNL1        0.0307
      8 C          61.8229   85.8037   10.4259 C.3     1  UNL1        0.0583
      9 C          61.9636   87.2315   10.8635 C.3     1  UNL1        0.2242
     10 O          62.1043   88.6594   11.3010 O.3     1  UNL1       -0.4283
     11 C          62.9648   88.6851   12.5294 C.2     1  UNL1        0.4117
     12 O          63.3641   89.9080   13.3008 O.2     1  UNL1       -0.2257
     13 N          63.3559   87.2731   12.8510 N.am    1  UNL1       -0.1834
     14 C          62.7371   86.3748   11.8214 C.2     1  UNL1        0.2747
     15 O          62.8688   84.8818   11.7603 O.2     1  UNL1       -0.2702
     16 C          59.0931   92.1727    3.4310 C.3     1  UNL1        0.1122
     17 N          58.4622   91.2980    4.4736 N.am    1  UNL1       -0.2869
     18 C          59.3019   90.7143    5.5709 C.2     1  UNL1        0.3045
     19 O          60.7724   91.0052    5.6256 O.2     1  UNL1       -0.2525
     20 N          58.6711   89.8397    6.6135 N.am    1  UNL1       -0.2683
     21 H          57.4971   91.1072    4.4377 H       1  UNL1        0.1510
     22 H          57.7059   89.6488    6.5776 H       1  UNL1        0.1564
     23 C          64.2150   86.8362   14.0004 C.3     1  UNL1        0.1893
     24 C          64.4777   85.3771   14.2282 C.2     1  UNL1        0.2469
     25 O          65.6136   84.7001   13.5201 O.2     1  UNL1       -0.2730
     26 N          63.6045   84.5950   15.1640 N.am    1  UNL1       -0.2678
     27 C          62.4686   85.2720   15.8721 C.3     1  UNL1        0.1708
     28 C          61.0810   85.1961   15.3074 C.3     1  UNL1        0.0306
     29 C          62.7202   86.0248   17.1448 C.3     1  UNL1        0.4138
     30 F          62.9719   86.7777   18.4175 F       1  UNL1       -0.1682
     31 F          64.1672   85.6332   17.0903 F       1  UNL1       -0.1682
     32 F          61.2733   86.4164   17.1993 F       1  UNL1       -0.1682
     33 C          63.8672   83.1357   15.3918 C.3     1  UNL1        0.1204
     34 C          63.3510   82.1197   14.4167 C.ar    1  UNL1       -0.0023
     35 C          62.0437   81.4304   14.6733 C.ar    1  UNL1       -0.0026
     36 C          61.5274   80.4143   13.6981 C.ar    1  UNL1       -0.0003
     37 C          62.3185   80.0873   12.4664 C.ar    1  UNL1       -0.0000
     38 C          63.6258   80.7766   12.2098 C.ar    1  UNL1       -0.0003
     39 C          64.1420   81.7926   13.1849 C.ar    1  UNL1       -0.0026
@<TRIPOS>BOND
     1    16    17    1
     2    17    18   am
     3    18    19    2
     4    18    20   am
     5    20     1    1
     6     1     2   ar
     7     2     3   ar
     8     3     4   ar
     9     4     5   ar
    10     5     6   ar
    11     5     7    1
    12     7     8    1
    13     9     8    1
    14     9    10    1
    15    10    11    1
    16    11    12    2
    17    11    13   am
    18    13    23    1
    19    23    24    1
    20    24    25    2
    21    24    26   am
    22    26    33    1
    23    33    34    1
    24    34    35   ar
    25    35    36   ar
    26    36    37   ar
    27    37    38   ar
    28    38    39   ar
    29    26    27    1
    30    27    28    1
    31    27    29    1
    32    29    30    1
    33    29    31    1
    34    29    32    1
    35    13    14   am
    36    14    15    2
    37     6     1   ar
    38    14     9    1
    39     9     4    1
    40    39    34   ar
    41    17    21    1
    42    20    22    1
@<TRIPOS>MOLECULE
*****
 39 42 0 0 0
SMALL
GASTEIGER

@<TRIPOS>ATOM
      1 C          62.7116   82.7488   12.4955 C.ar    1  UNL1        0.0512
      2 C          63.4094   83.5367   13.5642 C.ar    1  UNL1        0.0145
      3 C          63.5183   85.0281   13.4462 C.ar    1  UNL1        0.0005
      4 C          62.9293   85.7316   12.2596 C.ar    1  UNL1        0.0182
      5 C          62.2314   84.9437   11.1909 C.ar    1  UNL1       -0.0211
      6 C          62.1225   83.4523   11.3089 C.ar    1  UNL1        0.0103
      7 C          61.7520   85.9053   10.1442 C.3     1  UNL1        0.0307
      8 C          62.1537   87.2876   10.5661 C.3     1  UNL1        0.0583
      9 C          62.8812   87.1802   11.8734 C.3     1  UNL1        0.2242
     10 O          63.6088   87.0728   13.1808 O.3     1  UNL1       -0.4283
     11 C          64.0105   88.4551   13.6026 C.2     1  UNL1        0.4117
     12 O          64.7599   88.8129   14.8518 O.2     1  UNL1       -0.2257
     13 N          63.5311   89.4168   12.5560 N.am    1  UNL1       -0.1834
     14 C          62.8333   88.6289   11.4874 C.2     1  UNL1        0.2747
     15 O          62.1987   89.1909   10.2498 O.2     1  UNL1       -0.2702
     16 C          62.8648   78.0385   10.3070 C.3     1  UNL1        0.1122
     17 N          62.6793   78.9023   11.5193 N.am    1  UNL1       -0.2869
     18 C          62.7882   80.3937   11.4013 C.2     1  UNL1        0.3045
     19 O          63.0825   81.0213   10.0710 O.2     1  UNL1       -0.2525
     20 N          62.6027   81.2574   12.6135 N.am    1  UNL1       -0.2683
     21 H          62.4862   78.4903   12.3923 H       1  UNL1        0.1510
     22 H          62.4096   80.8455   13.4866 H       1  UNL1        0.1564
     23 C          63.7171   90.9051   12.5748 C.3     1  UNL1        0.1893
     24 C          64.1475   91.5913   13.8373 C.2     1  UNL1        0.2469
     25 O          63.3445   91.4239   15.0931 O.2     1  UNL1       -0.2730
     26 N          65.3809   92.4449   13.8439 N.am    1  UNL1       -0.2678
     27 C          66.1839   92.6124   12.5881 C.3     1  UNL1        0.1708
     28 C          67.3927   91.7564   12.3511 C.3     1  UNL1        0.0306
     29 C          65.7781   93.6358   11.5693 C.3     1  UNL1        0.4138
     30 F          65.3724   94.6592   10.5505 F       1  UNL1       -0.1682
     31 F          65.4475   92.5398   10.6000 F       1  UNL1       -0.1682
     32 F          66.1087   94.7318   12.5386 F       1  UNL1       -0.1682
     33 C          65.8113   93.1311   15.1065 C.3     1  UNL1        0.1204
     34 C          67.2464   93.0745   15.5391 C.ar    1  UNL1       -0.0023
     35 C          68.1019   94.3043   15.4626 C.ar    1  UNL1       -0.0026
     36 C          69.5370   94.2477   15.8952 C.ar    1  UNL1       -0.0003
     37 C          70.1168   92.9613   16.4042 C.ar    1  UNL1       -0.0000
     38 C          69.2613   91.7315   16.4807 C.ar    1  UNL1       -0.0003
     39 C          67.8262   91.7881   16.0481 C.ar    1  UNL1       -0.0026
@<TRIPOS>BOND
     1    16    17    1
     2    17    18   am
     3    18    19    2
     4    18    20   am
     5    20     1    1
     6     1     2   ar
     7     2     3   ar
     8     3     4   ar
     9     4     5   ar
    10     5     6   ar
    11     5     7    1
    12     7     8    1
    13     9     8    1
    14     9    10    1
    15    10    11    1
    16    11    12    2
    17    11    13   am
    18    13    23    1
    19    23    24    1
    20    24    25    2
    21    24    26   am
    22    26    33    1
    23    33    34    1
    24    34    35   ar
    25    35    36   ar
    26    36    37   ar
    27    37    38   ar
    28    38    39   ar
    29    26    27    1
    30    27    28    1
    31    27    29    1
    32    29    30    1
    33    29    31    1
    34    29    32    1
    35    13    14   am
    36    14    15    2
    37     6     1   ar
    38    14     9    1
    39     9     4    1
    40    39    34   ar
    41    17    21    1
    42    20    22    1
