@<TRIPOS>MOLECULE
*****
 63 69 0 0 0
SMALL
GASTEIGER

@<TRIPOS>ATOM
      1 N          62.2823   94.5934   -3.4375 N.3     1  UNL1       -0.1862
      2 C          61.1649   94.2488   -4.3770 C.3     1  UNL1        0.1775
      3 C          59.8422   93.7946   -3.8347 C.2     1  UNL1        0.2452
      4 O          58.7248   93.4499   -4.7743 O.2     1  UNL1       -0.2732
      5 N          59.6368   93.6851   -2.3529 N.am    1  UNL1       -0.2541
      6 C          58.3141   93.2309   -1.8106 C.3     1  UNL1        0.1577
      7 C          58.1087   93.1214   -0.3288 C.2     1  UNL1        0.2445
      8 O          56.7860   92.6672    0.2135 O.2     1  UNL1       -0.2731
      9 N          59.2261   93.4661    0.6108 N.am    1  UNL1       -0.2705
     10 C          60.5488   93.9203    0.0685 C.3     1  UNL1        0.1359
     11 C          60.7541   94.0298   -1.4134 C.3     1  UNL1        0.1908
     12 N          62.0769   94.4839   -1.9557 N.am    1  UNL1       -0.1863
     13 C          63.1943   94.8286   -1.0161 C.2     1  UNL1        0.3191
     14 O          62.9889   94.7191    0.4657 O.2     1  UNL1       -0.2512
     15 N          64.5170   95.2828   -1.5585 N.am    1  UNL1       -0.2836
     16 H          64.6518   95.3547   -2.5310 H       1  UNL1        0.1513
     17 C          63.6050   95.0476   -3.9798 C.3     1  UNL1        0.1188
     18 C          64.6529   92.8119   -4.7879 C.2     1  UNL1       -0.0034
     19 C          64.2947   94.2459   -5.0435 C.2     1  UNL1       -0.0071
     20 C          57.1967   92.8862   -2.7501 C.3     1  UNL1        0.0556
     21 C          56.0746   93.8572   -2.9693 C.ar    1  UNL1       -0.0198
     22 C          55.9925   94.6315   -4.2513 C.ar    1  UNL1       -0.0011
     23 C          54.8704   95.6025   -4.4705 C.ar    1  UNL1        0.0363
     24 C          53.8305   95.7992   -3.4077 C.ar    1  UNL1        0.1337
     25 O          52.7084   96.7702   -3.6269 O.3     1  UNL1       -0.5055
     26 C          53.9126   95.0250   -2.1255 C.ar    1  UNL1        0.0363
     27 C          55.0347   94.0539   -1.9063 C.ar    1  UNL1       -0.0011
     28 H          52.6571   97.2539   -4.4277 H       1  UNL1        0.2922
     29 C          59.0207   93.3566    2.0926 C.3     1  UNL1        0.1217
     30 C          59.9397   92.5037    2.9162 C.ar    1  UNL1        0.0135
     31 C          61.4011   92.4392    2.5846 C.ar    1  UNL1       -0.0012
     32 C          62.3201   91.5864    3.4081 C.ar    1  UNL1       -0.0002
     33 C          61.7776   90.7981    4.5632 C.ar    1  UNL1        0.0016
     34 C          60.3161   90.8627    4.8948 C.ar    1  UNL1        0.0214
     35 C          59.4997   90.2018    5.9656 C.ar    1  UNL1        0.0722
     36 C          58.0762   90.6462    5.8039 C.ar    1  UNL1        0.0805
     37 N          58.0129   91.5816    4.6332 N.ar    1  UNL1       -0.3241
     38 C          56.7814   92.2636    4.1152 C.3     1  UNL1        0.1305
     39 C          59.3972   91.7155    4.0713 C.ar    1  UNL1        0.0577
     40 C          60.0162   89.2616    7.0142 C.2     1  UNL1        0.2510
     41 O          59.7874   87.7855    6.8763 O.2     1  UNL1       -0.2698
     42 N          60.7616   89.7974    8.2005 N.am    1  UNL1       -0.2791
     43 H          60.9118   90.7661    8.2909 H       1  UNL1        0.1552
     44 C          61.2781   88.8573    9.2490 C.ar    1  UNL1        0.0702
     45 C          61.5026   87.4122    8.9155 C.ar    1  UNL1        0.0211
     46 C          62.0191   86.4720    9.9639 C.ar    1  UNL1        0.0590
     47 C          62.3111   86.9769   11.3459 C.ar    1  UNL1        0.2249
     48 N          62.0865   88.4220   11.6794 N.ar    1  UNL1       -0.2088
     49 C          61.5700   89.3622   10.6309 C.ar    1  UNL1        0.1167
     50 O          62.8275   86.0368   12.3943 O.3     1  UNL1       -0.4602
     51 C          62.4302   84.5906   12.3663 C.3     1  UNL1        0.2085
     52 C          62.0933   83.8804   13.6439 C.3     1  UNL1        0.0647
     53 C          62.6843   84.3486   14.9406 C.3     1  UNL1        0.0760
     54 N          64.0526   84.9626   14.9628 N.3     1  UNL1       -0.2702
     55 C          65.2542   84.1292   14.6284 C.3     1  UNL1        0.0897
     56 C          64.2195   86.4101   15.3193 C.3     1  UNL1        0.0897
     57 C          65.6343   95.6275   -0.6190 C.3     1  UNL1        0.1177
     58 C          65.4094   95.5804    0.8633 C.ar    1  UNL1       -0.0025
     59 C          65.2328   94.2604    1.5535 C.ar    1  UNL1       -0.0026
     60 C          65.0079   94.2133    3.0358 C.ar    1  UNL1       -0.0003
     61 C          64.9595   95.4862    3.8279 C.ar    1  UNL1       -0.0000
     62 C          65.1360   96.8062    3.1377 C.ar    1  UNL1       -0.0003
     63 C          65.3610   96.8534    1.6554 C.ar    1  UNL1       -0.0026
@<TRIPOS>BOND
     1    18    19    2
     2    19    17    1
     3    17     1    1
     4     1     2    1
     5     2     3    1
     6     3     4    2
     7     3     5   am
     8     5     6    1
     9     6    20    1
    10    20    21    1
    11    21    22   ar
    12    22    23   ar
    13    23    24   ar
    14    24    25    1
    15    24    26   ar
    16    26    27   ar
    17     6     7    1
    18     7     8    2
    19     7     9   am
    20     9    29    1
    21    29    30    1
    22    30    31   ar
    23    31    32   ar
    24    32    33   ar
    25    33    34   ar
    26    34    35   ar
    27    35    40    1
    28    40    41    2
    29    40    42   am
    30    42    44    1
    31    44    45   ar
    32    45    46   ar
    33    46    47   ar
    34    47    50    1
    35    50    51    1
    36    51    52    1
    37    52    53    1
    38    53    54    1
    39    54    55    1
    40    54    56    1
    41    47    48   ar
    42    48    49   ar
    43    35    36   ar
    44    36    37   ar
    45    37    38    1
    46    37    39   ar
    47     9    10    1
    48    11    10    1
    49    11    12    1
    50    12    13   am
    51    13    14    2
    52    13    15   am
    53    15    57    1
    54    57    58    1
    55    58    59   ar
    56    59    60   ar
    57    60    61   ar
    58    61    62   ar
    59    62    63   ar
    60    12     1    1
    61    63    58   ar
    62    11     5    1
    63    27    21   ar
    64    39    30   ar
    65    39    34   ar
    66    49    44   ar
    67    25    28    1
    68    42    43    1
    69    15    16    1
@<TRIPOS>MOLECULE
*****
 63 69 0 0 0
SMALL
GASTEIGER

@<TRIPOS>ATOM
      1 N          63.8267   96.7111   -5.0783 N.3     1  UNL1       -0.1862
      2 C          63.0272   96.6861   -6.3472 C.3     1  UNL1        0.1775
      3 C          61.5350   96.5444   -6.2908 C.2     1  UNL1        0.2452
      4 O          60.7355   96.5193   -7.5598 O.2     1  UNL1       -0.2732
      5 N          60.8423   96.4278   -4.9655 N.am    1  UNL1       -0.2541
      6 C          59.3500   96.2862   -4.9091 C.3     1  UNL1        0.1577
      7 C          58.6573   96.1696   -3.5838 C.2     1  UNL1        0.2445
      8 O          57.1651   96.0280   -3.5274 O.2     1  UNL1       -0.2731
      9 N          59.4568   96.1947   -2.3148 N.am    1  UNL1       -0.2705
     10 C          60.9490   96.3363   -2.3712 C.3     1  UNL1        0.1359
     11 C          61.6418   96.4529   -3.6966 C.3     1  UNL1        0.1908
     12 N          63.1340   96.5946   -3.7530 N.am    1  UNL1       -0.1863
     13 C          63.9335   96.6196   -2.4840 C.2     1  UNL1        0.3191
     14 O          63.2407   96.5031   -1.1587 O.2     1  UNL1       -0.2512
     15 N          65.4257   96.7613   -2.5405 N.am    1  UNL1       -0.2836
     16 H          65.8804   96.8378   -3.4103 H       1  UNL1        0.1513
     17 C          65.3189   96.8528   -5.1348 C.3     1  UNL1        0.1188
     18 C          66.8467   95.1907   -6.4206 C.2     1  UNL1       -0.0034
     19 C          66.0623   96.4686   -6.3796 C.2     1  UNL1       -0.0071
     20 C          58.5505   96.2611   -6.1780 C.3     1  UNL1        0.0556
     21 C          57.6358   95.1076   -6.4655 C.ar    1  UNL1       -0.0198
     22 C          56.2128   95.3606   -6.8666 C.ar    1  UNL1       -0.0011
     23 C          55.2981   94.2071   -7.1541 C.ar    1  UNL1        0.0363
     24 C          55.8064   92.8005   -7.0404 C.ar    1  UNL1        0.1337
     25 O          54.8917   91.6469   -7.3279 O.3     1  UNL1       -0.5055
     26 C          57.2295   92.5473   -6.6392 C.ar    1  UNL1        0.0363
     27 C          58.1442   93.7009   -6.3517 C.ar    1  UNL1       -0.0011
     28 H          54.0028   91.8050   -7.5785 H       1  UNL1        0.2922
     29 C          58.7641   96.0781   -0.9895 C.3     1  UNL1        0.1217
     30 C          58.6387   94.7397   -0.3239 C.ar    1  UNL1        0.0135
     31 C          57.7793   93.6744   -0.9376 C.ar    1  UNL1       -0.0012
     32 C          57.6539   92.3360   -0.2721 C.ar    1  UNL1       -0.0002
     33 C          58.3879   92.0629    1.0072 C.ar    1  UNL1        0.0016
     34 C          59.2472   93.1282    1.6210 C.ar    1  UNL1        0.0214
     35 C          60.0834   93.1496    2.8661 C.ar    1  UNL1        0.0722
     36 C          60.7255   94.5012    2.9701 C.ar    1  UNL1        0.0805
     37 N          60.2863   95.3151    1.7893 N.ar    1  UNL1       -0.3241
     38 C          60.6898   96.7293    1.4940 C.3     1  UNL1        0.1305
     39 C          59.3726   94.4666    0.9554 C.ar    1  UNL1        0.0577
     40 C          60.2484   92.0180    3.8369 C.2     1  UNL1        0.2510
     41 O          61.4314   91.1023    3.7273 O.2     1  UNL1       -0.2698
     42 N          59.2304   91.8021    4.9172 N.am    1  UNL1       -0.2791
     43 H          58.4539   92.4031    4.9891 H       1  UNL1        0.1552
     44 C          59.3953   90.6706    5.8880 C.ar    1  UNL1        0.0702
     45 C          60.0431   90.9128    7.2190 C.ar    1  UNL1        0.0211
     46 C          60.2080   89.7814    8.1899 C.ar    1  UNL1        0.0590
     47 C          59.7252   88.4076    7.8296 C.ar    1  UNL1        0.2249
     48 N          59.0775   88.1654    6.4986 N.ar    1  UNL1       -0.2088
     49 C          58.9125   89.2969    5.5277 C.ar    1  UNL1        0.1167
     50 O          59.8902   87.2761    8.8004 O.3     1  UNL1       -0.4602
     51 C          61.0078   86.2917    8.6219 C.3     1  UNL1        0.2085
     52 C          62.2073   86.3476    9.5208 C.3     1  UNL1        0.0647
     53 C          62.0320   86.5838   10.9916 C.3     1  UNL1        0.0760
     54 N          61.8276   87.9771   11.5082 N.3     1  UNL1       -0.2702
     55 C          63.0036   88.7860   11.9698 C.3     1  UNL1        0.0897
     56 C          60.4473   88.5617   11.5633 C.3     1  UNL1        0.0897
     57 C          66.2252   96.7864   -1.2716 C.3     1  UNL1        0.1177
     58 C          65.6996   96.1096   -0.0404 C.ar    1  UNL1       -0.0025
     59 C          65.2256   94.6882   -0.1103 C.ar    1  UNL1       -0.0026
     60 C          64.7000   94.0115    1.1209 C.ar    1  UNL1       -0.0003
     61 C          64.6483   94.7562    2.4219 C.ar    1  UNL1       -0.0000
     62 C          65.1223   96.1776    2.4918 C.ar    1  UNL1       -0.0003
     63 C          65.6479   96.8544    1.2607 C.ar    1  UNL1       -0.0026
@<TRIPOS>BOND
     1    18    19    2
     2    19    17    1
     3    17     1    1
     4     1     2    1
     5     2     3    1
     6     3     4    2
     7     3     5   am
     8     5     6    1
     9     6    20    1
    10    20    21    1
    11    21    22   ar
    12    22    23   ar
    13    23    24   ar
    14    24    25    1
    15    24    26   ar
    16    26    27   ar
    17     6     7    1
    18     7     8    2
    19     7     9   am
    20     9    29    1
    21    29    30    1
    22    30    31   ar
    23    31    32   ar
    24    32    33   ar
    25    33    34   ar
    26    34    35   ar
    27    35    40    1
    28    40    41    2
    29    40    42   am
    30    42    44    1
    31    44    45   ar
    32    45    46   ar
    33    46    47   ar
    34    47    50    1
    35    50    51    1
    36    51    52    1
    37    52    53    1
    38    53    54    1
    39    54    55    1
    40    54    56    1
    41    47    48   ar
    42    48    49   ar
    43    35    36   ar
    44    36    37   ar
    45    37    38    1
    46    37    39   ar
    47     9    10    1
    48    11    10    1
    49    11    12    1
    50    12    13   am
    51    13    14    2
    52    13    15   am
    53    15    57    1
    54    57    58    1
    55    58    59   ar
    56    59    60   ar
    57    60    61   ar
    58    61    62   ar
    59    62    63   ar
    60    12     1    1
    61    63    58   ar
    62    11     5    1
    63    27    21   ar
    64    39    30   ar
    65    39    34   ar
    66    49    44   ar
    67    25    28    1
    68    42    43    1
    69    15    16    1
@<TRIPOS>MOLECULE
*****
 63 69 0 0 0
SMALL
GASTEIGER

@<TRIPOS>ATOM
      1 N          62.2255   94.2653   -3.4726 N.3     1  UNL1       -0.1862
      2 C          61.0914   94.3031   -4.4534 C.3     1  UNL1        0.1775
      3 C          59.6799   94.1337   -3.9749 C.2     1  UNL1        0.2452
      4 O          58.5457   94.1716   -4.9558 O.2     1  UNL1       -0.2732
      5 N          59.4026   93.9264   -2.5154 N.am    1  UNL1       -0.2541
      6 C          57.9911   93.7570   -2.0368 C.3     1  UNL1        0.1577
      7 C          57.7138   93.5498   -0.5774 C.2     1  UNL1        0.2445
      8 O          56.3023   93.3803   -0.0988 O.2     1  UNL1       -0.2731
      9 N          58.8480   93.5119    0.4036 N.am    1  UNL1       -0.2705
     10 C          60.2595   93.6813   -0.0750 C.3     1  UNL1        0.1359
     11 C          60.5367   93.8886   -1.5345 C.3     1  UNL1        0.1908
     12 N          61.9482   94.0580   -2.0131 N.am    1  UNL1       -0.1863
     13 C          63.0824   94.0201   -1.0321 C.2     1  UNL1        0.3191
     14 O          62.8051   93.8129    0.4273 O.2     1  UNL1       -0.2512
     15 N          64.4939   94.1895   -1.5107 N.am    1  UNL1       -0.2836
     16 H          64.6759   94.3256   -2.4686 H       1  UNL1        0.1513
     17 C          63.6370   94.4347   -3.9511 C.3     1  UNL1        0.1188
     18 C          63.3122   96.2518   -5.7794 C.2     1  UNL1       -0.0034
     19 C          63.9031   94.9464   -5.3358 C.2     1  UNL1       -0.0071
     20 C          56.8569   93.7949   -3.0177 C.3     1  UNL1        0.0556
     21 C          56.2190   92.5171   -3.4763 C.ar    1  UNL1       -0.0198
     22 C          55.9533   91.4163   -2.4927 C.ar    1  UNL1       -0.0011
     23 C          55.3154   90.1385   -2.9513 C.ar    1  UNL1        0.0363
     24 C          54.9431   89.9616   -4.3935 C.ar    1  UNL1        0.1337
     25 O          54.3052   88.6838   -4.8521 O.3     1  UNL1       -0.5055
     26 C          55.2088   91.0624   -5.3772 C.ar    1  UNL1        0.0363
     27 C          55.8467   92.3402   -4.9186 C.ar    1  UNL1       -0.0011
     28 H          54.1392   87.9961   -4.2377 H       1  UNL1        0.2922
     29 C          58.5707   93.3046    1.8631 C.3     1  UNL1        0.1217
     30 C          59.5343   92.5229    2.7060 C.ar    1  UNL1        0.0135
     31 C          60.9941   92.5118    2.3616 C.ar    1  UNL1       -0.0012
     32 C          61.9577   91.7301    3.2044 C.ar    1  UNL1       -0.0002
     33 C          61.4614   90.9595    4.3917 C.ar    1  UNL1        0.0016
     34 C          60.0015   90.9705    4.7361 C.ar    1  UNL1        0.0214
     35 C          59.2252   90.3118    5.8377 C.ar    1  UNL1        0.0722
     36 C          57.7818   90.6864    5.6756 C.ar    1  UNL1        0.0805
     37 N          57.6661   91.5766    4.4739 N.ar    1  UNL1       -0.3241
     38 C          56.4007   92.1845    3.9456 C.3     1  UNL1        0.1305
     39 C          59.0380   91.7522    3.8933 C.ar    1  UNL1        0.0577
     40 C          59.7926   89.4328    6.9126 C.2     1  UNL1        0.2510
     41 O          59.7736   87.9417    6.7500 O.2     1  UNL1       -0.2698
     42 N          60.3791   90.0448    8.1501 N.am    1  UNL1       -0.2791
     43 H          60.3916   91.0234    8.2568 H       1  UNL1        0.1552
     44 C          60.9466   89.1659    9.2250 C.ar    1  UNL1        0.0702
     45 C          60.3137   87.8383    9.5200 C.ar    1  UNL1        0.0211
     46 C          60.8811   86.9593   10.5949 C.ar    1  UNL1        0.0590
     47 C          62.0813   87.4079   11.3748 C.ar    1  UNL1        0.2249
     48 N          62.7141   88.7355   11.0798 N.ar    1  UNL1       -0.2088
     49 C          62.1467   89.6145   10.0049 C.ar    1  UNL1        0.1167
     50 O          62.6487   86.5290   12.4497 O.3     1  UNL1       -0.4602
     51 C          62.3052   85.0692   12.4841 C.3     1  UNL1        0.2085
     52 C          63.3172   84.0716   12.9641 C.3     1  UNL1        0.0647
     53 C          64.3229   83.5037   12.0070 C.3     1  UNL1        0.0760
     54 N          63.8847   83.0275   10.6538 N.3     1  UNL1       -0.2702
     55 C          63.6957   84.0114    9.5374 C.3     1  UNL1        0.0897
     56 C          63.6355   81.5675   10.4168 C.3     1  UNL1        0.0897
     57 C          65.6281   94.1517   -0.5298 C.3     1  UNL1        0.1177
     58 C          65.4619   94.7569    0.8326 C.ar    1  UNL1       -0.0025
     59 C          65.1720   93.8784    2.0133 C.ar    1  UNL1       -0.0026
     60 C          65.0059   94.4836    3.3756 C.ar    1  UNL1       -0.0003
     61 C          65.1296   95.9674    3.5573 C.ar    1  UNL1       -0.0000
     62 C          65.4195   96.8460    2.3766 C.ar    1  UNL1       -0.0003
     63 C          65.5857   96.2408    1.0142 C.ar    1  UNL1       -0.0026
@<TRIPOS>BOND
     1    18    19    2
     2    19    17    1
     3    17     1    1
     4     1     2    1
     5     2     3    1
     6     3     4    2
     7     3     5   am
     8     5     6    1
     9     6    20    1
    10    20    21    1
    11    21    22   ar
    12    22    23   ar
    13    23    24   ar
    14    24    25    1
    15    24    26   ar
    16    26    27   ar
    17     6     7    1
    18     7     8    2
    19     7     9   am
    20     9    29    1
    21    29    30    1
    22    30    31   ar
    23    31    32   ar
    24    32    33   ar
    25    33    34   ar
    26    34    35   ar
    27    35    40    1
    28    40    41    2
    29    40    42   am
    30    42    44    1
    31    44    45   ar
    32    45    46   ar
    33    46    47   ar
    34    47    50    1
    35    50    51    1
    36    51    52    1
    37    52    53    1
    38    53    54    1
    39    54    55    1
    40    54    56    1
    41    47    48   ar
    42    48    49   ar
    43    35    36   ar
    44    36    37   ar
    45    37    38    1
    46    37    39   ar
    47     9    10    1
    48    11    10    1
    49    11    12    1
    50    12    13   am
    51    13    14    2
    52    13    15   am
    53    15    57    1
    54    57    58    1
    55    58    59   ar
    56    59    60   ar
    57    60    61   ar
    58    61    62   ar
    59    62    63   ar
    60    12     1    1
    61    63    58   ar
    62    11     5    1
    63    27    21   ar
    64    39    30   ar
    65    39    34   ar
    66    49    44   ar
    67    25    28    1
    68    42    43    1
    69    15    16    1
