@<TRIPOS>MOLECULE
*****
 32 35 0 0 0
SMALL
GASTEIGER

@<TRIPOS>ATOM
      1 N          61.5307   87.6560   11.2024 N.3     1  UNL1       -0.2622
      2 C          62.2019   86.4716   10.5727 C.3     1  UNL1        0.0981
      3 C          62.4989   86.4718    9.1024 C.3     1  UNL1        0.0224
      4 C          63.1701   85.2873    8.4727 C.3     1  UNL1        0.0065
      5 C          63.5443   84.1027    9.3132 C.3     1  UNL1        0.0277
      6 C          63.2472   84.1024   10.7834 C.ar    1  UNL1       -0.0073
      7 C          63.6213   82.9177   11.6240 C.ar    1  UNL1       -0.0015
      8 C          63.3242   82.9175   13.0943 C.ar    1  UNL1        0.0203
      9 C          62.6530   84.1019   13.7240 C.ar    1  UNL1        0.0985
     10 N          62.2789   85.2866   12.8835 N.ar    1  UNL1       -0.2471
     11 C          62.5760   85.2869   11.4132 C.ar    1  UNL1        0.0695
     12 C          60.1493   88.0518   10.7721 C.3     1  UNL1        0.1292
     13 C          59.4524   89.3464    7.0858 C.3     1  UNL1        0.0298
     14 C          59.6384   88.4210    8.2516 C.2     1  UNL1       -0.0038
     15 C          59.9632   88.9772    9.6063 C.2     1  UNL1        0.1272
     16 F          60.1019   90.4588    9.7952 F       1  UNL1       -0.2080
     17 C          59.4998   86.9395    8.0627 C.3     1  UNL1        0.0899
     18 N          58.1880   86.3589    7.6245 N.3     1  UNL1       -0.3177
     19 H          57.4910   86.5038    8.3550 H       1  UNL1        0.1191
     20 H          58.2987   85.3594    7.4536 H       1  UNL1        0.1191
     21 C          62.2408   88.4446   12.2624 C.3     1  UNL1        0.0889
     22 C          63.0286   89.6650   11.8881 C.3     1  UNL1        0.0748
     23 C          63.9084   90.3307   12.9043 C.3     1  UNL1        0.0432
     24 C          64.6962   91.5511   12.5300 C.ar    1  UNL1       -0.0234
     25 C          65.5760   92.2167   13.5462 C.ar    1  UNL1       -0.0045
     26 C          66.3637   93.4371   13.1719 C.ar    1  UNL1       -0.0003
     27 C          66.2717   93.9917   11.7812 C.ar    1  UNL1       -0.0003
     28 C          65.3920   93.3260   10.7649 C.ar    1  UNL1       -0.0032
     29 C          64.6042   92.1057   11.1393 C.ar    1  UNL1       -0.0103
     30 C          63.7244   91.4400   10.1230 C.3     1  UNL1        0.0953
     31 N          62.9366   90.2196   10.4974 N.3     1  UNL1       -0.2934
     32 H          63.2278   89.4753    9.8637 H       1  UNL1        0.1236
@<TRIPOS>BOND
     1    13    14    1
     2    14    17    1
     3    17    18    1
     4    14    15    2
     5    15    16    1
     6    15    12    1
     7    12     1    1
     8     1    21    1
     9    22    21    1
    10    22    23    1
    11    23    24    1
    12    24    25   ar
    13    25    26   ar
    14    26    27   ar
    15    27    28   ar
    16    28    29   ar
    17    29    30    1
    18    30    31    1
    19     2     1    1
    20     2     3    1
    21     3     4    1
    22     4     5    1
    23     5     6    1
    24     6     7   ar
    25     7     8   ar
    26     8     9   ar
    27     9    10   ar
    28    10    11   ar
    29    31    22    1
    30    11     2    1
    31    29    24   ar
    32    11     6   ar
    33    18    19    1
    34    18    20    1
    35    31    32    1
@<TRIPOS>MOLECULE
*****
 32 35 0 0 0
SMALL
GASTEIGER

@<TRIPOS>ATOM
      1 N          62.5378   87.1337   11.7168 N.3     1  UNL1       -0.2622
      2 C          62.8029   88.5909   11.4799 C.3     1  UNL1        0.0981
      3 C          62.3810   89.2300   10.1901 C.3     1  UNL1        0.0224
      4 C          62.6460   90.6873    9.9532 C.3     1  UNL1        0.0065
      5 C          63.3330   91.5055   11.0061 C.3     1  UNL1        0.0277
      6 C          63.7549   90.8664   12.2959 C.ar    1  UNL1       -0.0073
      7 C          64.4419   91.6846   13.3488 C.ar    1  UNL1       -0.0015
      8 C          64.8639   91.0455   14.6386 C.ar    1  UNL1        0.0203
      9 C          64.5988   89.5882   14.8755 C.ar    1  UNL1        0.0985
     10 N          63.9118   88.7700   13.8226 N.ar    1  UNL1       -0.2471
     11 C          63.4899   89.4091   12.5327 C.ar    1  UNL1        0.0695
     12 C          61.4323   86.4422   10.9754 C.3     1  UNL1        0.1292
     13 C          61.0039   85.5072    7.1424 C.3     1  UNL1        0.0298
     14 C          60.7424   86.1037    8.4936 C.2     1  UNL1       -0.0038
     15 C          61.6938   85.8457    9.6242 C.2     1  UNL1        0.1272
     16 F          62.9066   84.9912    9.4036 F       1  UNL1       -0.2080
     17 C          59.5295   86.9583    8.7142 C.3     1  UNL1        0.0899
     18 N          58.3214   86.7851    7.8421 N.3     1  UNL1       -0.3177
     19 H          58.5504   87.0572    6.8861 H       1  UNL1        0.1191
     20 H          57.5636   87.3723    8.1905 H       1  UNL1        0.1191
     21 C          63.3783   86.3678   12.6950 C.3     1  UNL1        0.0889
     22 C          62.9857   84.9757   13.0925 C.3     1  UNL1        0.0748
     23 C          63.2307   83.8307   12.1551 C.3     1  UNL1        0.0432
     24 C          62.8380   82.4386   12.5527 C.ar    1  UNL1       -0.0234
     25 C          63.0830   81.2936   11.6152 C.ar    1  UNL1       -0.0045
     26 C          62.6904   79.9016   12.0128 C.ar    1  UNL1       -0.0003
     27 C          62.0528   79.6546   13.3478 C.ar    1  UNL1       -0.0003
     28 C          61.8078   80.7996   14.2853 C.ar    1  UNL1       -0.0032
     29 C          62.2004   82.1916   13.8877 C.ar    1  UNL1       -0.0103
     30 C          61.9554   83.3367   14.8252 C.3     1  UNL1        0.0953
     31 N          62.3481   84.7287   14.4276 N.3     1  UNL1       -0.2934
     32 H          63.0042   85.0626   15.1336 H       1  UNL1        0.1236
@<TRIPOS>BOND
     1    13    14    1
     2    14    17    1
     3    17    18    1
     4    14    15    2
     5    15    16    1
     6    15    12    1
     7    12     1    1
     8     1    21    1
     9    22    21    1
    10    22    23    1
    11    23    24    1
    12    24    25   ar
    13    25    26   ar
    14    26    27   ar
    15    27    28   ar
    16    28    29   ar
    17    29    30    1
    18    30    31    1
    19     2     1    1
    20     2     3    1
    21     3     4    1
    22     4     5    1
    23     5     6    1
    24     6     7   ar
    25     7     8   ar
    26     8     9   ar
    27     9    10   ar
    28    10    11   ar
    29    31    22    1
    30    11     2    1
    31    29    24   ar
    32    11     6   ar
    33    18    19    1
    34    18    20    1
    35    31    32    1
@<TRIPOS>MOLECULE
*****
 32 35 0 0 0
SMALL
GASTEIGER

@<TRIPOS>ATOM
      1 N          63.9329   90.0985   13.9138 N.3     1  UNL1       -0.2622
      2 C          64.8716   91.2576   14.0734 C.3     1  UNL1        0.0981
      3 C          65.4611   91.5657   15.4178 C.3     1  UNL1        0.0224
      4 C          66.3998   92.7248   15.5773 C.3     1  UNL1        0.0065
      5 C          66.7489   93.5757   14.3924 C.3     1  UNL1        0.0277
      6 C          66.1594   93.2676   13.0480 C.ar    1  UNL1       -0.0073
      7 C          66.5086   94.1185   11.8630 C.ar    1  UNL1       -0.0015
      8 C          65.9190   93.8104   10.5186 C.ar    1  UNL1        0.0203
      9 C          64.9804   92.6513   10.3591 C.ar    1  UNL1        0.0985
     10 N          64.6312   91.8004   11.5440 N.ar    1  UNL1       -0.2471
     11 C          65.2208   92.1085   12.8885 C.ar    1  UNL1        0.0695
     12 C          64.2625   88.7751   14.5383 C.3     1  UNL1        0.1292
     13 C          62.8939   86.5320   17.5125 C.3     1  UNL1        0.0298
     14 C          63.5338   86.9293   16.2152 C.2     1  UNL1       -0.0038
     15 C          63.6226   88.3778   15.8355 C.2     1  UNL1        0.1272
     16 F          63.0717   89.4288   16.7529 F       1  UNL1       -0.2080
     17 C          64.0847   85.8783   15.2978 C.3     1  UNL1        0.0899
     18 N          63.2067   85.2638   14.2484 N.3     1  UNL1       -0.3177
     19 H          62.4650   84.7266   14.6975 H       1  UNL1        0.1191
     20 H          63.7638   84.6464   13.6578 H       1  UNL1        0.1191
     21 C          62.6648   90.2628   13.1299 C.3     1  UNL1        0.0889
     22 C          62.2769   89.2364   12.1071 C.3     1  UNL1        0.0748
     23 C          61.3668   89.6119   10.9754 C.3     1  UNL1        0.0432
     24 C          60.9790   88.5854    9.9526 C.ar    1  UNL1       -0.0234
     25 C          60.0689   88.9609    8.8209 C.ar    1  UNL1       -0.0045
     26 C          59.6811   87.9344    7.7982 C.ar    1  UNL1       -0.0003
     27 C          60.2033   86.5325    7.9072 C.ar    1  UNL1       -0.0003
     28 C          61.1134   86.1570    9.0389 C.ar    1  UNL1       -0.0032
     29 C          61.5012   87.1835   10.0616 C.ar    1  UNL1       -0.0103
     30 C          62.4113   86.8080   11.1933 C.3     1  UNL1        0.0953
     31 N          62.7992   87.8345   12.2160 N.3     1  UNL1       -0.2934
     32 H          63.8171   87.8973   12.1988 H       1  UNL1        0.1236
@<TRIPOS>BOND
     1    13    14    1
     2    14    17    1
     3    17    18    1
     4    14    15    2
     5    15    16    1
     6    15    12    1
     7    12     1    1
     8     1    21    1
     9    22    21    1
    10    22    23    1
    11    23    24    1
    12    24    25   ar
    13    25    26   ar
    14    26    27   ar
    15    27    28   ar
    16    28    29   ar
    17    29    30    1
    18    30    31    1
    19     2     1    1
    20     2     3    1
    21     3     4    1
    22     4     5    1
    23     5     6    1
    24     6     7   ar
    25     7     8   ar
    26     8     9   ar
    27     9    10   ar
    28    10    11   ar
    29    31    22    1
    30    11     2    1
    31    29    24   ar
    32    11     6   ar
    33    18    19    1
    34    18    20    1
    35    31    32    1
@<TRIPOS>MOLECULE
*****
 32 35 0 0 0
SMALL
GASTEIGER

@<TRIPOS>ATOM
      1 N          63.7811   90.1788   13.3102 N.3     1  UNL1       -0.2622
      2 C          64.5993   91.3309   12.8069 C.3     1  UNL1        0.0981
      3 C          64.5028   91.7479   11.3693 C.3     1  UNL1        0.0224
      4 C          65.3209   92.9000   10.8660 C.3     1  UNL1        0.0065
      5 C          66.2356   93.6351   11.8004 C.3     1  UNL1        0.0277
      6 C          66.3321   93.2180   13.2380 C.ar    1  UNL1       -0.0073
      7 C          67.2468   93.9531   14.1724 C.ar    1  UNL1       -0.0015
      8 C          67.3433   93.5361   15.6100 C.ar    1  UNL1        0.0203
      9 C          66.5251   92.3840   16.1132 C.ar    1  UNL1        0.0985
     10 N          65.6105   91.6489   15.1789 N.ar    1  UNL1       -0.2471
     11 C          65.5139   92.0659   13.7412 C.ar    1  UNL1        0.0695
     12 C          64.3941   89.1723   14.2381 C.3     1  UNL1        0.1292
     13 C          62.9490   87.0076   17.2341 C.3     1  UNL1        0.0298
     14 C          63.6470   87.3739   15.9579 C.2     1  UNL1       -0.0038
     15 C          63.6961   88.8060   15.5143 C.2     1  UNL1        0.1272
     16 F          63.0473   89.8718   16.3468 F       1  UNL1       -0.2080
     17 C          64.2959   86.3082   15.1254 C.3     1  UNL1        0.0899
     18 N          63.5127   85.6165   14.0492 N.3     1  UNL1       -0.3177
     19 H          62.7629   85.0697   14.4725 H       1  UNL1        0.1191
     20 H          64.1301   84.9975   13.5239 H       1  UNL1        0.1191
     21 C          62.3499   90.0331   12.8855 C.3     1  UNL1        0.0889
     22 C          61.9777   89.0289   11.8352 C.3     1  UNL1        0.0748
     23 C          61.0705   89.4239   10.7078 C.3     1  UNL1        0.0432
     24 C          60.6983   88.4196    9.6576 C.ar    1  UNL1       -0.0234
     25 C          59.7911   88.8146    8.5302 C.ar    1  UNL1       -0.0045
     26 C          59.4189   87.8103    7.4800 C.ar    1  UNL1       -0.0003
     27 C          59.9539   86.4111    7.5572 C.ar    1  UNL1       -0.0003
     28 C          60.8611   86.0161    8.6846 C.ar    1  UNL1       -0.0032
     29 C          61.2332   87.0204    9.7348 C.ar    1  UNL1       -0.0103
     30 C          62.1405   86.6254   10.8622 C.3     1  UNL1        0.0953
     31 N          62.5126   87.6296   11.9124 N.3     1  UNL1       -0.2934
     32 H          63.5300   87.7024   11.9028 H       1  UNL1        0.1236
@<TRIPOS>BOND
     1    13    14    1
     2    14    17    1
     3    17    18    1
     4    14    15    2
     5    15    16    1
     6    15    12    1
     7    12     1    1
     8     1    21    1
     9    22    21    1
    10    22    23    1
    11    23    24    1
    12    24    25   ar
    13    25    26   ar
    14    26    27   ar
    15    27    28   ar
    16    28    29   ar
    17    29    30    1
    18    30    31    1
    19     2     1    1
    20     2     3    1
    21     3     4    1
    22     4     5    1
    23     5     6    1
    24     6     7   ar
    25     7     8   ar
    26     8     9   ar
    27     9    10   ar
    28    10    11   ar
    29    31    22    1
    30    11     2    1
    31    29    24   ar
    32    11     6   ar
    33    18    19    1
    34    18    20    1
    35    31    32    1
@<TRIPOS>MOLECULE
*****
 32 35 0 0 0
SMALL
GASTEIGER

@<TRIPOS>ATOM
      1 N          63.8695   88.5271   14.7078 N.3     1  UNL1       -0.2622
      2 C          64.2284   89.7054   13.8518 C.3     1  UNL1        0.0981
      3 C          65.2890   90.6651   14.3033 C.3     1  UNL1        0.0224
      4 C          65.6479   91.8434   13.4473 C.3     1  UNL1        0.0065
      5 C          64.9462   92.0619   12.1397 C.3     1  UNL1        0.0277
      6 C          63.8856   91.1022   11.6882 C.ar    1  UNL1       -0.0073
      7 C          63.1838   91.3207   10.3805 C.ar    1  UNL1       -0.0015
      8 C          62.1232   90.3610    9.9290 C.ar    1  UNL1        0.0203
      9 C          61.7643   89.1827   10.7850 C.ar    1  UNL1        0.0985
     10 N          62.4660   88.9641   12.0926 N.ar    1  UNL1       -0.2471
     11 C          63.5267   89.9239   12.5442 C.ar    1  UNL1        0.0695
     12 C          62.7113   88.6146   15.6569 C.3     1  UNL1        0.1292
     13 C          62.8371   86.9414   19.2534 C.3     1  UNL1        0.0298
     14 C          62.6154   87.1213   17.7808 C.2     1  UNL1       -0.0038
     15 C          62.9331   88.4347   17.1295 C.2     1  UNL1        0.1272
     16 F          63.4725   89.5680   17.9507 F       1  UNL1       -0.2080
     17 C          62.0759   85.9879   16.9596 C.3     1  UNL1        0.0899
     18 N          60.6147   85.9331   16.6253 N.3     1  UNL1       -0.3177
     19 H          60.0753   85.7964   17.4801 H       1  UNL1        0.1191
     20 H          60.4410   85.1575   15.9860 H       1  UNL1        0.1191
     21 C          64.6688   87.2612   14.6148 C.3     1  UNL1        0.0889
     22 C          64.0920   86.0587   13.9281 C.3     1  UNL1        0.0748
     23 C          64.4047   84.6827   14.4367 C.3     1  UNL1        0.0432
     24 C          63.8280   83.4802   13.7500 C.ar    1  UNL1       -0.0234
     25 C          64.1407   82.1042   14.2586 C.ar    1  UNL1       -0.0045
     26 C          63.5639   80.9018   13.5719 C.ar    1  UNL1       -0.0003
     27 C          62.6744   81.0755   12.3767 C.ar    1  UNL1       -0.0003
     28 C          62.3617   82.4515   11.8681 C.ar    1  UNL1       -0.0032
     29 C          62.9384   83.6539   12.5548 C.ar    1  UNL1       -0.0103
     30 C          62.6257   85.0300   12.0462 C.3     1  UNL1        0.0953
     31 N          63.2025   86.2324   12.7328 N.3     1  UNL1       -0.2934
     32 H          62.4145   86.8062   13.0331 H       1  UNL1        0.1236
@<TRIPOS>BOND
     1    13    14    1
     2    14    17    1
     3    17    18    1
     4    14    15    2
     5    15    16    1
     6    15    12    1
     7    12     1    1
     8     1    21    1
     9    22    21    1
    10    22    23    1
    11    23    24    1
    12    24    25   ar
    13    25    26   ar
    14    26    27   ar
    15    27    28   ar
    16    28    29   ar
    17    29    30    1
    18    30    31    1
    19     2     1    1
    20     2     3    1
    21     3     4    1
    22     4     5    1
    23     5     6    1
    24     6     7   ar
    25     7     8   ar
    26     8     9   ar
    27     9    10   ar
    28    10    11   ar
    29    31    22    1
    30    11     2    1
    31    29    24   ar
    32    11     6   ar
    33    18    19    1
    34    18    20    1
    35    31    32    1
@<TRIPOS>MOLECULE
*****
 32 35 0 0 0
SMALL
GASTEIGER

@<TRIPOS>ATOM
      1 N          62.4813   86.1997   10.5764 N.3     1  UNL1       -0.2622
      2 C          62.9973   84.8261   10.8877 C.3     1  UNL1        0.0981
      3 C          63.6001   83.9871    9.8001 C.3     1  UNL1        0.0224
      4 C          64.1161   82.6135   10.1114 C.3     1  UNL1        0.0065
      5 C          64.0293   82.0788   11.5101 C.3     1  UNL1        0.0277
      6 C          63.4264   82.9177   12.5976 C.ar    1  UNL1       -0.0073
      7 C          63.3396   82.3830   13.9964 C.ar    1  UNL1       -0.0015
      8 C          62.7367   83.2220   15.0839 C.ar    1  UNL1        0.0203
      9 C          62.2208   84.5956   14.7727 C.ar    1  UNL1        0.0985
     10 N          62.3076   85.1303   13.3740 N.ar    1  UNL1       -0.2471
     11 C          62.9105   84.2914   12.2864 C.ar    1  UNL1        0.0695
     12 C          62.3658   86.6524    9.1511 C.3     1  UNL1        0.1292
     13 C          58.7072   86.7860    7.6191 C.3     1  UNL1        0.0298
     14 C          59.9207   87.1455    8.4242 C.2     1  UNL1       -0.0038
     15 C          61.1523   86.2928    8.3460 C.2     1  UNL1        0.1272
     16 F          61.1704   85.0806    7.4628 F       1  UNL1       -0.2080
     17 C          59.9026   88.3577    9.3074 C.3     1  UNL1        0.0899
     18 N          60.3915   89.6752    8.7828 N.3     1  UNL1       -0.3177
     19 H          61.3923   89.6160    8.5947 H       1  UNL1        0.1191
     20 H          60.2184   90.4027    9.4765 H       1  UNL1        0.1191
     21 C          62.0809   87.1207   11.6906 C.3     1  UNL1        0.0889
     22 C          62.7960   88.4259   11.8784 C.3     1  UNL1        0.0748
     23 C          63.6106   88.6635   13.1153 C.3     1  UNL1        0.0432
     24 C          64.3257   89.9687   13.3032 C.ar    1  UNL1       -0.0234
     25 C          65.1403   90.2063   14.5401 C.ar    1  UNL1       -0.0045
     26 C          65.8554   91.5115   14.7279 C.ar    1  UNL1       -0.0003
     27 C          65.7558   92.5789   13.6788 C.ar    1  UNL1       -0.0003
     28 C          64.9412   92.3413   12.4419 C.ar    1  UNL1       -0.0032
     29 C          64.2262   91.0362   12.2541 C.ar    1  UNL1       -0.0103
     30 C          63.4115   90.7985   11.0172 C.3     1  UNL1        0.0953
     31 N          62.6965   89.4934   10.8294 N.3     1  UNL1       -0.2934
     32 H          63.0476   89.0875    9.9620 H       1  UNL1        0.1236
@<TRIPOS>BOND
     1    13    14    1
     2    14    17    1
     3    17    18    1
     4    14    15    2
     5    15    16    1
     6    15    12    1
     7    12     1    1
     8     1    21    1
     9    22    21    1
    10    22    23    1
    11    23    24    1
    12    24    25   ar
    13    25    26   ar
    14    26    27   ar
    15    27    28   ar
    16    28    29   ar
    17    29    30    1
    18    30    31    1
    19     2     1    1
    20     2     3    1
    21     3     4    1
    22     4     5    1
    23     5     6    1
    24     6     7   ar
    25     7     8   ar
    26     8     9   ar
    27     9    10   ar
    28    10    11   ar
    29    31    22    1
    30    11     2    1
    31    29    24   ar
    32    11     6   ar
    33    18    19    1
    34    18    20    1
    35    31    32    1
@<TRIPOS>MOLECULE
*****
 32 35 0 0 0
SMALL
GASTEIGER

@<TRIPOS>ATOM
      1 N          63.1262   88.7913   13.1206 N.3     1  UNL1       -0.2622
      2 C          63.6596   87.4702   13.5899 C.3     1  UNL1        0.0981
      3 C          64.5312   87.4035   14.8088 C.3     1  UNL1        0.0224
      4 C          65.0646   86.0824   15.2781 C.3     1  UNL1        0.0065
      5 C          64.7263   84.8279   14.5284 C.3     1  UNL1        0.0277
      6 C          63.8547   84.8946   13.3095 C.ar    1  UNL1       -0.0073
      7 C          63.5164   83.6402   12.5598 C.ar    1  UNL1       -0.0015
      8 C          62.6447   83.7069   11.3409 C.ar    1  UNL1        0.0203
      9 C          62.1114   85.0280   10.8716 C.ar    1  UNL1        0.0985
     10 N          62.4496   86.2824   11.6213 N.ar    1  UNL1       -0.2471
     11 C          63.3213   86.2158   12.8402 C.ar    1  UNL1        0.0695
     12 C          62.8615   89.0177   11.6617 C.3     1  UNL1        0.1292
     13 C          59.4859   90.9699   10.9236 C.3     1  UNL1        0.0298
     14 C          60.4335   89.8902   11.3552 C.2     1  UNL1       -0.0038
     15 C          61.9139   90.0974   11.2301 C.2     1  UNL1        0.1272
     16 F          62.4466   91.3844   10.6734 F       1  UNL1       -0.2080
     17 C          59.9008   88.6032   11.9118 C.3     1  UNL1        0.0899
     18 N          58.7254   88.6187   12.8436 N.3     1  UNL1       -0.3177
     19 H          58.9863   89.0854   13.7122 H       1  UNL1        0.1191
     20 H          58.4387   87.6608   13.0451 H       1  UNL1        0.1191
     21 C          62.8576   89.8859   14.1103 C.3     1  UNL1        0.0889
     22 C          63.9940   90.6977   14.6577 C.3     1  UNL1        0.0748
     23 C          65.2850   90.7878   13.8992 C.3     1  UNL1        0.0432
     24 C          66.4214   91.5995   14.4466 C.ar    1  UNL1       -0.0234
     25 C          67.7123   91.6896   13.6881 C.ar    1  UNL1       -0.0045
     26 C          68.8487   92.5013   14.2355 C.ar    1  UNL1       -0.0003
     27 C          68.6942   93.2230   15.5413 C.ar    1  UNL1       -0.0003
     28 C          67.4032   93.1330   16.2998 C.ar    1  UNL1       -0.0032
     29 C          66.2669   92.3212   15.7524 C.ar    1  UNL1       -0.0103
     30 C          64.9758   92.2311   16.5109 C.3     1  UNL1        0.0953
     31 N          63.8395   91.4194   15.9635 N.3     1  UNL1       -0.2934
     32 H          63.0484   92.0544   15.8572 H       1  UNL1        0.1236
@<TRIPOS>BOND
     1    13    14    1
     2    14    17    1
     3    17    18    1
     4    14    15    2
     5    15    16    1
     6    15    12    1
     7    12     1    1
     8     1    21    1
     9    22    21    1
    10    22    23    1
    11    23    24    1
    12    24    25   ar
    13    25    26   ar
    14    26    27   ar
    15    27    28   ar
    16    28    29   ar
    17    29    30    1
    18    30    31    1
    19     2     1    1
    20     2     3    1
    21     3     4    1
    22     4     5    1
    23     5     6    1
    24     6     7   ar
    25     7     8   ar
    26     8     9   ar
    27     9    10   ar
    28    10    11   ar
    29    31    22    1
    30    11     2    1
    31    29    24   ar
    32    11     6   ar
    33    18    19    1
    34    18    20    1
    35    31    32    1
@<TRIPOS>MOLECULE
*****
 32 35 0 0 0
SMALL
GASTEIGER

@<TRIPOS>ATOM
      1 N          63.4620   88.2667   13.3139 N.3     1  UNL1       -0.2622
      2 C          62.8227   87.4394   12.2383 C.3     1  UNL1        0.0981
      3 C          63.0691   85.9608   12.1831 C.3     1  UNL1        0.0224
      4 C          62.4298   85.1336   11.1075 C.3     1  UNL1        0.0065
      5 C          61.5440   85.7848   10.0871 C.3     1  UNL1        0.0277
      6 C          61.2976   87.2634   10.1423 C.ar    1  UNL1       -0.0073
      7 C          60.4118   87.9147    9.1219 C.ar    1  UNL1       -0.0015
      8 C          60.1653   89.3933    9.1771 C.ar    1  UNL1        0.0203
      9 C          60.8046   90.2206   10.2527 C.ar    1  UNL1        0.0985
     10 N          61.6904   89.5693   11.2731 N.ar    1  UNL1       -0.2471
     11 C          61.9369   88.0907   11.2179 C.ar    1  UNL1        0.0695
     12 C          64.2401   87.6006   14.4097 C.3     1  UNL1        0.1292
     13 C          62.6933   86.1837   17.7787 C.3     1  UNL1        0.0298
     14 C          63.2517   86.2361   16.3874 C.2     1  UNL1       -0.0038
     15 C          63.6817   87.5481   15.8009 C.2     1  UNL1        0.1272
     16 F          63.5533   88.8074   16.6055 F       1  UNL1       -0.2080
     17 C          63.3801   84.9768   15.5828 C.3     1  UNL1        0.0899
     18 N          64.7091   84.2904   15.4712 N.3     1  UNL1       -0.3177
     19 H          65.3581   84.8874   14.9586 H       1  UNL1        0.1191
     20 H          64.5949   83.4070   14.9742 H       1  UNL1        0.1191
     21 C          63.3232   89.7601   13.2936 C.3     1  UNL1        0.0889
     22 C          64.2887   90.6135   14.0615 C.3     1  UNL1        0.0748
     23 C          65.6882   90.8031   13.5563 C.3     1  UNL1        0.0432
     24 C          66.6537   91.6565   14.3242 C.ar    1  UNL1       -0.0234
     25 C          68.0533   91.8460   13.8190 C.ar    1  UNL1       -0.0045
     26 C          69.0186   92.6995   14.5869 C.ar    1  UNL1       -0.0003
     27 C          68.5845   93.3633   15.8600 C.ar    1  UNL1       -0.0003
     28 C          67.1849   93.1738   16.3652 C.ar    1  UNL1       -0.0032
     29 C          66.2195   92.3204   15.5973 C.ar    1  UNL1       -0.0103
     30 C          64.8199   92.1308   16.1025 C.3     1  UNL1        0.0953
     31 N          63.8545   91.2774   15.3346 N.3     1  UNL1       -0.2934
     32 H          63.0586   91.8708   15.1007 H       1  UNL1        0.1236
@<TRIPOS>BOND
     1    13    14    1
     2    14    17    1
     3    17    18    1
     4    14    15    2
     5    15    16    1
     6    15    12    1
     7    12     1    1
     8     1    21    1
     9    22    21    1
    10    22    23    1
    11    23    24    1
    12    24    25   ar
    13    25    26   ar
    14    26    27   ar
    15    27    28   ar
    16    28    29   ar
    17    29    30    1
    18    30    31    1
    19     2     1    1
    20     2     3    1
    21     3     4    1
    22     4     5    1
    23     5     6    1
    24     6     7   ar
    25     7     8   ar
    26     8     9   ar
    27     9    10   ar
    28    10    11   ar
    29    31    22    1
    30    11     2    1
    31    29    24   ar
    32    11     6   ar
    33    18    19    1
    34    18    20    1
    35    31    32    1
@<TRIPOS>MOLECULE
*****
 32 35 0 0 0
SMALL
GASTEIGER

@<TRIPOS>ATOM
      1 N          63.0363   85.1607   12.9762 N.3     1  UNL1       -0.2622
      2 C          63.2756   83.9420   12.1351 C.3     1  UNL1        0.0981
      3 C          63.9834   84.0664   10.8185 C.3     1  UNL1        0.0224
      4 C          64.2227   82.8477    9.9774 C.3     1  UNL1        0.0065
      5 C          63.7541   81.5045   10.4530 C.3     1  UNL1        0.0277
      6 C          63.0463   81.3800   11.7695 C.ar    1  UNL1       -0.0073
      7 C          62.5777   80.0367   12.2451 C.ar    1  UNL1       -0.0015
      8 C          61.8699   79.9122   13.5617 C.ar    1  UNL1        0.0203
      9 C          61.6307   81.1310   14.4028 C.ar    1  UNL1        0.0985
     10 N          62.0992   82.4742   13.9273 N.ar    1  UNL1       -0.2471
     11 C          62.8070   82.5987   12.6106 C.ar    1  UNL1        0.0695
     12 C          61.9107   86.0938   12.6414 C.3     1  UNL1        0.1292
     13 C          61.6342   88.2214    9.3027 C.3     1  UNL1        0.0298
     14 C          61.9053   87.8556   10.7319 C.2     1  UNL1       -0.0038
     15 C          61.6395   86.4596   11.2122 C.2     1  UNL1        0.1272
     16 F          61.1027   85.4295   10.2633 F       1  UNL1       -0.2080
     17 C          62.4421   88.8858   11.6809 C.3     1  UNL1        0.0899
     18 N          61.4977   89.7538   12.4583 N.3     1  UNL1       -0.3177
     19 H          60.9882   90.3616   11.8169 H       1  UNL1        0.1191
     20 H          62.0255   90.3235   13.1195 H       1  UNL1        0.1191
     21 C          63.9227   85.4463   14.1521 C.3     1  UNL1        0.0889
     22 C          63.8552   86.7797   14.8358 C.3     1  UNL1        0.0748
     23 C          64.4992   87.9790   14.2059 C.3     1  UNL1        0.0432
     24 C          64.4318   89.3125   14.8897 C.ar    1  UNL1       -0.0234
     25 C          65.0758   90.5118   14.2598 C.ar    1  UNL1       -0.0045
     26 C          65.0083   91.8451   14.9435 C.ar    1  UNL1       -0.0003
     27 C          64.2968   91.9792   16.2572 C.ar    1  UNL1       -0.0003
     28 C          63.6527   90.7799   16.8871 C.ar    1  UNL1       -0.0032
     29 C          63.7202   89.4465   16.2034 C.ar    1  UNL1       -0.0103
     30 C          63.0762   88.2471   16.8333 C.3     1  UNL1        0.0953
     31 N          63.1437   86.9138   16.1495 N.3     1  UNL1       -0.2934
     32 H          62.1813   86.6130   15.9952 H       1  UNL1        0.1236
@<TRIPOS>BOND
     1    13    14    1
     2    14    17    1
     3    17    18    1
     4    14    15    2
     5    15    16    1
     6    15    12    1
     7    12     1    1
     8     1    21    1
     9    22    21    1
    10    22    23    1
    11    23    24    1
    12    24    25   ar
    13    25    26   ar
    14    26    27   ar
    15    27    28   ar
    16    28    29   ar
    17    29    30    1
    18    30    31    1
    19     2     1    1
    20     2     3    1
    21     3     4    1
    22     4     5    1
    23     5     6    1
    24     6     7   ar
    25     7     8   ar
    26     8     9   ar
    27     9    10   ar
    28    10    11   ar
    29    31    22    1
    30    11     2    1
    31    29    24   ar
    32    11     6   ar
    33    18    19    1
    34    18    20    1
    35    31    32    1
