@<TRIPOS>MOLECULE
*****
 50 54 0 0 0
SMALL
GASTEIGER

@<TRIPOS>ATOM
      1 N          62.4653   88.0741   12.3717 N.3     1  UNL1       -0.2661
      2 C          63.8385   87.8688   12.9394 C.3     1  UNL1        0.0926
      3 C          64.1468   88.3165   14.3374 C.3     1  UNL1        0.0950
      4 N          64.3788   89.7703   14.6254 N.am    1  UNL1       -0.2706
      5 C          63.6137   90.4489   15.7228 C.2     1  UNL1        0.4020
      6 O          63.0600   90.2075   16.2429 O.2     1  UNL1       -0.2264
      7 H          65.0333   90.2790   14.0943 H       1  UNL1        0.1527
      8 O          63.8457   91.9025   16.0108 O.3     1  UNL1       -0.4274
      9 C          65.1497   92.3514   16.6009 C.3     1  UNL1        0.2621
     10 C          66.3930   92.3489   15.7617 C.ar    1  UNL1        0.1323
     11 N          66.5576   91.6754   14.4315 N.ar    1  UNL1       -0.2374
     12 C          67.9564   91.9297   13.9531 C.ar    1  UNL1        0.1062
     13 C          68.6563   92.7603   14.9876 C.ar    1  UNL1        0.0573
     14 S          67.6901   93.0193   16.1055 S.2     1  UNL1       -0.0666
     15 C          64.2229   87.3106   15.4475 C.3     1  UNL1        0.0474
     16 C          64.0080   85.8549   15.1565 C.ar    1  UNL1       -0.0205
     17 C          65.0799   85.0609   14.4705 C.ar    1  UNL1       -0.0042
     18 C          64.8648   83.6051   14.1795 C.ar    1  UNL1       -0.0003
     19 C          63.5780   82.9434   14.5745 C.ar    1  UNL1       -0.0000
     20 C          62.5061   83.7374   15.2605 C.ar    1  UNL1       -0.0003
     21 C          62.7210   85.1931   15.5515 C.ar    1  UNL1       -0.0042
     22 C          61.8709   89.4505   12.3254 C.3     1  UNL1        0.0926
     23 C          61.7672   90.1791   11.0184 C.3     1  UNL1        0.0950
     24 N          62.9959   90.7611   10.3846 N.am    1  UNL1       -0.2706
     25 C          63.9528   91.5709   11.2082 C.2     1  UNL1        0.4020
     26 O          63.9945   91.9864   12.6489 O.2     1  UNL1       -0.2264
     27 H          63.1742   90.6115    9.4280 H       1  UNL1        0.1527
     28 O          65.1815   92.1528   10.5744 O.3     1  UNL1       -0.4291
     29 C          65.8896   93.3026   11.2278 C.3     1  UNL1        0.2447
     30 C          66.4729   94.3994   10.3872 C.ar    1  UNL1        0.0714
     31 C          67.3686   94.2174    9.1978 C.ar    1  UNL1        0.1053
     32 N          67.7123   95.5764    8.6639 N.ar    1  UNL1       -0.2350
     33 C          67.0290   96.5984    9.5233 C.ar    1  UNL1        0.1343
     34 S          66.2630   95.8711   10.5884 S.2     1  UNL1       -0.0652
     35 C          60.4349   90.3258   10.3452 C.3     1  UNL1        0.0474
     36 C          59.9830   89.3027    9.3455 C.ar    1  UNL1       -0.0205
     37 C          59.9279   89.6519    7.8878 C.ar    1  UNL1       -0.0042
     38 C          59.4760   88.6290    6.8881 C.ar    1  UNL1       -0.0003
     39 C          59.0793   87.2569    7.3462 C.ar    1  UNL1       -0.0000
     40 C          59.1344   86.9077    8.8039 C.ar    1  UNL1       -0.0003
     41 C          59.5862   87.9307    9.8036 C.ar    1  UNL1       -0.0042
     42 C          61.6866   86.9029   11.8504 C.3     1  UNL1        0.0993
     43 C          63.4750   83.6467   10.4544 C.ar    1  UNL1        0.1385
     44 C          63.6200   84.0024    9.0044 C.ar    1  UNL1        0.0369
     45 C          63.1204   85.3250    8.5030 C.ar    1  UNL1        0.0028
     46 C          62.4759   86.2918    9.4517 C.ar    1  UNL1       -0.0027
     47 C          62.3310   85.9361   10.9017 C.ar    1  UNL1       -0.0031
     48 C          62.8306   84.6136   11.4030 C.ar    1  UNL1        0.0340
     49 C          63.0011   81.2826   11.4220 C.3     1  UNL1        0.2525
     50 O          63.9746   82.3242   10.9558 O.3     1  UNL1       -0.4714
@<TRIPOS>BOND
     1    49    50    1
     2    50    43    1
     3    43    44   ar
     4    44    45   ar
     5    45    46   ar
     6    46    47   ar
     7    47    42    1
     8    42     1    1
     9     1     2    1
    10     3     2    1
    11     3    15    1
    12    15    16    1
    13    16    17   ar
    14    17    18   ar
    15    18    19   ar
    16    19    20   ar
    17    20    21   ar
    18     3     4    1
    19     4     5   am
    20     5     6    2
    21     5     8    1
    22     8     9    1
    23     9    10    1
    24    10    11   ar
    25    11    12   ar
    26    12    13   ar
    27    13    14   ar
    28     1    22    1
    29    23    22    1
    30    23    35    1
    31    35    36    1
    32    36    37   ar
    33    37    38   ar
    34    38    39   ar
    35    39    40   ar
    36    40    41   ar
    37    23    24    1
    38    24    25   am
    39    25    26    2
    40    25    28    1
    41    28    29    1
    42    29    30    1
    43    30    31   ar
    44    31    32   ar
    45    32    33   ar
    46    33    34   ar
    47    47    48   ar
    48    48    43   ar
    49    21    16   ar
    50    14    10   ar
    51    41    36   ar
    52    34    30   ar
    53     4     7    1
    54    24    27    1
@<TRIPOS>MOLECULE
*****
 50 54 0 0 0
SMALL
GASTEIGER

@<TRIPOS>ATOM
      1 N          62.4770   88.0664   12.3311 N.3     1  UNL1       -0.2661
      2 C          61.9179   89.4577   12.3729 C.3     1  UNL1        0.0926
      3 C          61.7642   90.2427   11.1041 C.3     1  UNL1        0.0950
      4 N          62.9559   90.9144   10.4887 N.am    1  UNL1       -0.2706
      5 C          64.0015   91.5374   11.3654 C.2     1  UNL1        0.4020
      6 O          64.0922   91.6084   12.1542 O.2     1  UNL1       -0.2264
      7 H          63.0518   90.9464    9.5094 H       1  UNL1        0.1527
      8 O          65.1931   92.2092   10.7501 O.3     1  UNL1       -0.4274
      9 C          65.7728   93.4380   11.3858 C.3     1  UNL1        0.2621
     10 C          66.3891   94.5051   10.5307 C.ar    1  UNL1        0.1323
     11 N          66.3891   95.9769   10.8208 N.ar    1  UNL1       -0.2374
     12 C          67.1137   96.6693    9.7048 C.ar    1  UNL1        0.1062
     13 C          67.5616   95.6256    8.7249 C.ar    1  UNL1        0.0573
     14 S          67.1137   94.2880    9.2354 S.2     1  UNL1       -0.0666
     15 C          60.4188   90.3559   10.4505 C.3     1  UNL1        0.0474
     16 C          59.9875   89.3348    9.4400 C.ar    1  UNL1       -0.0205
     17 C          59.9638   89.6860    7.9819 C.ar    1  UNL1       -0.0042
     18 C          59.5325   88.6648    6.9713 C.ar    1  UNL1       -0.0003
     19 C          59.1249   87.2924    7.4189 C.ar    1  UNL1       -0.0000
     20 C          59.1486   86.9412    8.8770 C.ar    1  UNL1       -0.0003
     21 C          59.5799   87.9623    9.8875 C.ar    1  UNL1       -0.0042
     22 C          63.8421   87.7896   12.8879 C.3     1  UNL1        0.0926
     23 C          64.2077   88.2818   14.2568 C.3     1  UNL1        0.0950
     24 N          64.5655   89.7236   14.4647 N.am    1  UNL1       -0.2706
     25 C          63.8571   90.5284   15.5137 C.2     1  UNL1        0.4020
     26 O          62.7736   90.2242   16.5055 O.2     1  UNL1       -0.2264
     27 H          65.2653   90.1417   13.9127 H       1  UNL1        0.1527
     28 O          64.2149   91.9702   15.7216 O.3     1  UNL1       -0.4291
     29 C          65.4993   92.3330   16.4063 C.3     1  UNL1        0.2447
     30 C          66.7725   92.4150   15.6175 C.ar    1  UNL1        0.0714
     31 C          66.9918   91.8682   14.2380 C.ar    1  UNL1        0.1053
     32 N          68.4048   92.1734   13.8376 N.ar    1  UNL1       -0.2350
     33 C          69.0588   92.9090   14.9695 C.ar    1  UNL1        0.1343
     34 S          68.0500   93.0583   16.0696 S.2     1  UNL1       -0.0652
     35 C          64.2155   87.3322   15.4179 C.3     1  UNL1        0.0474
     36 C          63.9968   85.8659   15.1890 C.ar    1  UNL1       -0.0205
     37 C          65.0405   85.0534   14.4814 C.ar    1  UNL1       -0.0042
     38 C          64.8219   83.5872   14.2526 C.ar    1  UNL1       -0.0003
     39 C          63.5596   82.9335   14.7313 C.ar    1  UNL1       -0.0000
     40 C          62.5160   83.7459   15.4390 C.ar    1  UNL1       -0.0003
     41 C          62.7346   85.2121   15.6678 C.ar    1  UNL1       -0.0042
     42 C          61.6711   86.9519   11.7325 C.3     1  UNL1        0.0993
     43 C          63.4701   83.6163   10.5547 C.ar    1  UNL1        0.1385
     44 C          63.6641   83.8992    9.0945 C.ar    1  UNL1        0.0369
     45 C          63.1937   85.1998    8.5135 C.ar    1  UNL1        0.0028
     46 C          62.5294   86.2173    9.3929 C.ar    1  UNL1       -0.0027
     47 C          62.3354   85.9343   10.8532 C.ar    1  UNL1       -0.0031
     48 C          62.8058   84.6338   11.4340 C.ar    1  UNL1        0.0340
     49 C          62.9440   81.3241   11.6588 C.3     1  UNL1        0.2525
     50 O          63.9404   82.3157   11.1356 O.3     1  UNL1       -0.4714
@<TRIPOS>BOND
     1    49    50    1
     2    50    43    1
     3    43    44   ar
     4    44    45   ar
     5    45    46   ar
     6    46    47   ar
     7    47    42    1
     8    42     1    1
     9     1     2    1
    10     3     2    1
    11     3    15    1
    12    15    16    1
    13    16    17   ar
    14    17    18   ar
    15    18    19   ar
    16    19    20   ar
    17    20    21   ar
    18     3     4    1
    19     4     5   am
    20     5     6    2
    21     5     8    1
    22     8     9    1
    23     9    10    1
    24    10    11   ar
    25    11    12   ar
    26    12    13   ar
    27    13    14   ar
    28     1    22    1
    29    23    22    1
    30    23    35    1
    31    35    36    1
    32    36    37   ar
    33    37    38   ar
    34    38    39   ar
    35    39    40   ar
    36    40    41   ar
    37    23    24    1
    38    24    25   am
    39    25    26    2
    40    25    28    1
    41    28    29    1
    42    29    30    1
    43    30    31   ar
    44    31    32   ar
    45    32    33   ar
    46    33    34   ar
    47    47    48   ar
    48    48    43   ar
    49    21    16   ar
    50    14    10   ar
    51    41    36   ar
    52    34    30   ar
    53     4     7    1
    54    24    27    1
@<TRIPOS>MOLECULE
*****
 50 54 0 0 0
SMALL
GASTEIGER

@<TRIPOS>ATOM
      1 N          62.5084   88.7248   12.4563 N.3     1  UNL1       -0.2661
      2 C          63.8863   88.9670   12.9972 C.3     1  UNL1        0.0926
      3 C          64.0642   89.4670   14.4002 C.3     1  UNL1        0.0950
      4 N          64.0820   88.4980   15.5451 N.am    1  UNL1       -0.2706
      5 C          62.9721   88.5089   16.5541 C.2     1  UNL1        0.4020
      6 O          62.3096   88.9430   16.6440 O.2     1  UNL1       -0.2264
      7 H          64.8220   87.8550   15.6344 H       1  UNL1        0.1527
      8 O          62.9898   87.5400   17.6991 O.3     1  UNL1       -0.4274
      9 C          62.5077   86.1338   17.4991 C.3     1  UNL1        0.2621
     10 C          63.0273   85.3188   16.3520 C.ar    1  UNL1        0.1323
     11 N          64.3696   85.4699   15.6996 N.ar    1  UNL1       -0.2374
     12 C          64.4677   84.4542   14.6003 C.ar    1  UNL1        0.1062
     13 C          63.1860   83.6752   14.5731 C.ar    1  UNL1        0.0573
     14 S          62.2958   84.2096   15.6558 S.2     1  UNL1       -0.0666
     15 C          64.2243   90.9359   14.6583 C.3     1  UNL1        0.0474
     16 C          65.5927   91.5183   14.8537 C.ar    1  UNL1       -0.0205
     17 C          66.6666   91.2680   13.8368 C.ar    1  UNL1       -0.0042
     18 C          68.0351   91.8504   14.0323 C.ar    1  UNL1       -0.0003
     19 C          68.3296   92.6831   15.2447 C.ar    1  UNL1       -0.0000
     20 C          67.2557   92.9335   16.2616 C.ar    1  UNL1       -0.0003
     21 C          65.8873   92.3511   16.0661 C.ar    1  UNL1       -0.0042
     22 C          61.6333   89.8855   12.0861 C.3     1  UNL1        0.0926
     23 C          61.5777   90.3593   10.6640 C.3     1  UNL1        0.0950
     24 N          62.8325   90.8016    9.9713 N.am    1  UNL1       -0.2706
     25 C          63.8070   91.6935   10.6818 C.2     1  UNL1        0.4020
     26 O          63.8464   92.3162   12.0458 O.2     1  UNL1       -0.2264
     27 H          63.0164   90.5065    9.0502 H       1  UNL1        0.1527
     28 O          65.0618   92.1357    9.9890 O.3     1  UNL1       -0.4291
     29 C          66.0917   92.9293   10.7371 C.3     1  UNL1        0.2447
     30 C          66.5305   94.2666   10.2183 C.ar    1  UNL1        0.0714
     31 C          67.4435   94.5035    9.0520 C.ar    1  UNL1        0.1053
     32 N          67.6106   95.9851    8.8876 N.ar    1  UNL1       -0.2350
     33 C          66.8008   96.6638    9.9523 C.ar    1  UNL1        0.1343
     34 S          66.1332   95.6018   10.7748 S.2     1  UNL1       -0.0652
     35 C          60.2673   90.3909    9.9347 C.3     1  UNL1        0.0474
     36 C          59.8689   89.2405    9.0583 C.ar    1  UNL1       -0.0205
     37 C          59.8131   89.4161    7.5697 C.ar    1  UNL1       -0.0042
     38 C          59.4146   88.2658    6.6933 C.ar    1  UNL1       -0.0003
     39 C          59.0720   86.9401    7.3055 C.ar    1  UNL1       -0.0000
     40 C          59.1278   86.7645    8.7942 C.ar    1  UNL1       -0.0003
     41 C          59.5262   87.9148    9.6706 C.ar    1  UNL1       -0.0042
     42 C          62.0055   87.3220   12.2857 C.3     1  UNL1        0.0993
     43 C          63.2571   84.2673   10.0829 C.ar    1  UNL1        0.1385
     44 C          63.2821   84.8924    8.7195 C.ar    1  UNL1        0.0369
     45 C          62.8816   86.3274    8.5449 C.ar    1  UNL1        0.0028
     46 C          62.4560   87.1373    9.7336 C.ar    1  UNL1       -0.0027
     47 C          62.4310   86.5121   11.0970 C.ar    1  UNL1       -0.0031
     48 C          62.8316   85.0772   11.2716 C.ar    1  UNL1        0.0340
     49 C          64.4018   82.4059   11.4881 C.3     1  UNL1        0.2525
     50 O          63.6577   82.8323   10.2575 O.3     1  UNL1       -0.4714
@<TRIPOS>BOND
     1    49    50    1
     2    50    43    1
     3    43    44   ar
     4    44    45   ar
     5    45    46   ar
     6    46    47   ar
     7    47    42    1
     8    42     1    1
     9     1     2    1
    10     3     2    1
    11     3    15    1
    12    15    16    1
    13    16    17   ar
    14    17    18   ar
    15    18    19   ar
    16    19    20   ar
    17    20    21   ar
    18     3     4    1
    19     4     5   am
    20     5     6    2
    21     5     8    1
    22     8     9    1
    23     9    10    1
    24    10    11   ar
    25    11    12   ar
    26    12    13   ar
    27    13    14   ar
    28     1    22    1
    29    23    22    1
    30    23    35    1
    31    35    36    1
    32    36    37   ar
    33    37    38   ar
    34    38    39   ar
    35    39    40   ar
    36    40    41   ar
    37    23    24    1
    38    24    25   am
    39    25    26    2
    40    25    28    1
    41    28    29    1
    42    29    30    1
    43    30    31   ar
    44    31    32   ar
    45    32    33   ar
    46    33    34   ar
    47    47    48   ar
    48    48    43   ar
    49    21    16   ar
    50    14    10   ar
    51    41    36   ar
    52    34    30   ar
    53     4     7    1
    54    24    27    1
@<TRIPOS>MOLECULE
*****
 50 54 0 0 0
SMALL
GASTEIGER

@<TRIPOS>ATOM
      1 N          61.4571   88.6326   11.8248 N.3     1  UNL1       -0.2661
      2 C          60.1792   88.2504   11.1387 C.3     1  UNL1        0.0926
      3 C          60.1520   88.0706    9.6498 C.3     1  UNL1        0.0950
      4 N          60.4956   89.2199    8.7491 N.am    1  UNL1       -0.2706
      5 C          59.8232   89.3543    7.4150 C.2     1  UNL1        0.4020
      6 O          59.2750   88.9262    7.0256 O.2     1  UNL1       -0.2264
      7 H          61.1624   89.8860    9.0336 H       1  UNL1        0.1527
      8 O          60.1668   90.5035    6.5144 O.3     1  UNL1       -0.4274
      9 C          59.1728   90.9836    5.4987 C.3     1  UNL1        0.2621
     10 C          59.6408   91.7376    4.2895 C.ar    1  UNL1        0.1323
     11 N          58.7634   92.4097    3.2753 N.ar    1  UNL1       -0.2374
     12 C          59.6487   93.0394    2.2410 C.ar    1  UNL1        0.1062
     13 C          61.0734   92.7565    2.6159 C.ar    1  UNL1        0.0573
     14 S          61.0685   91.9519    3.8819 S.2     1  UNL1       -0.0666
     15 C          59.7813   86.7415    9.0614 C.3     1  UNL1        0.0474
     16 C          60.7844   85.9729    8.2534 C.ar    1  UNL1       -0.0205
     17 C          62.2036   85.8639    8.7267 C.ar    1  UNL1       -0.0042
     18 C          63.2067   85.0952    7.9186 C.ar    1  UNL1       -0.0003
     19 C          62.7907   84.4356    6.6374 C.ar    1  UNL1       -0.0000
     20 C          61.3715   84.5446    6.1641 C.ar    1  UNL1       -0.0003
     21 C          60.3683   85.3132    6.9721 C.ar    1  UNL1       -0.0042
     22 C          61.4841   89.8036   12.7618 C.3     1  UNL1        0.0926
     23 C          62.7942   90.4184   13.1565 C.3     1  UNL1        0.0950
     24 N          63.3900   91.5137   12.3227 N.am    1  UNL1       -0.2706
     25 C          63.4944   91.3518   10.8352 C.2     1  UNL1        0.4020
     26 O          63.1153   90.2622    9.8765 O.2     1  UNL1       -0.2264
     27 H          63.7126   92.3390   12.7519 H       1  UNL1        0.1527
     28 O          64.0903   92.4472   10.0015 O.3     1  UNL1       -0.4291
     29 C          65.0689   93.4064   10.6117 C.3     1  UNL1        0.2447
     30 C          66.4909   93.4316   10.1351 C.ar    1  UNL1        0.0714
     31 C          67.2406   94.6412    9.6609 C.ar    1  UNL1        0.1053
     32 N          68.6259   94.2089    9.2817 N.ar    1  UNL1       -0.2350
     33 C          68.7326   92.7321    9.5215 C.ar    1  UNL1        0.1343
     34 S          67.4131   92.2516   10.0490 S.2     1  UNL1       -0.0652
     35 C          63.5084   89.9377   14.3848 C.3     1  UNL1        0.0474
     36 C          64.5523   90.7996   15.0309 C.ar    1  UNL1       -0.0205
     37 C          64.2191   91.5824   16.2663 C.ar    1  UNL1       -0.0042
     38 C          65.2630   92.4442   16.9125 C.ar    1  UNL1       -0.0003
     39 C          66.6401   92.5232   16.3232 C.ar    1  UNL1       -0.0000
     40 C          66.9733   91.7404   15.0878 C.ar    1  UNL1       -0.0003
     41 C          65.9294   90.8786   14.4416 C.ar    1  UNL1       -0.0042
     42 C          62.7080   87.8438   11.5740 C.3     1  UNL1        0.0993
     43 C          62.8420   84.1069   12.9035 C.ar    1  UNL1        0.1385
     44 C          63.6713   84.2761   14.1418 C.ar    1  UNL1        0.0369
     45 C          64.1795   85.6346   14.5243 C.ar    1  UNL1        0.0028
     46 C          63.8584   86.8238   13.6684 C.ar    1  UNL1       -0.0027
     47 C          63.0291   86.6545   12.4299 C.ar    1  UNL1       -0.0031
     48 C          62.5209   85.2961   12.0475 C.ar    1  UNL1        0.0340
     49 C          62.5700   81.5767   13.4273 C.3     1  UNL1        0.2525
     50 O          62.3338   82.7483   12.5210 O.3     1  UNL1       -0.4714
@<TRIPOS>BOND
     1    49    50    1
     2    50    43    1
     3    43    44   ar
     4    44    45   ar
     5    45    46   ar
     6    46    47   ar
     7    47    42    1
     8    42     1    1
     9     1     2    1
    10     3     2    1
    11     3    15    1
    12    15    16    1
    13    16    17   ar
    14    17    18   ar
    15    18    19   ar
    16    19    20   ar
    17    20    21   ar
    18     3     4    1
    19     4     5   am
    20     5     6    2
    21     5     8    1
    22     8     9    1
    23     9    10    1
    24    10    11   ar
    25    11    12   ar
    26    12    13   ar
    27    13    14   ar
    28     1    22    1
    29    23    22    1
    30    23    35    1
    31    35    36    1
    32    36    37   ar
    33    37    38   ar
    34    38    39   ar
    35    39    40   ar
    36    40    41   ar
    37    23    24    1
    38    24    25   am
    39    25    26    2
    40    25    28    1
    41    28    29    1
    42    29    30    1
    43    30    31   ar
    44    31    32   ar
    45    32    33   ar
    46    33    34   ar
    47    47    48   ar
    48    48    43   ar
    49    21    16   ar
    50    14    10   ar
    51    41    36   ar
    52    34    30   ar
    53     4     7    1
    54    24    27    1
@<TRIPOS>MOLECULE
*****
 50 54 0 0 0
SMALL
GASTEIGER

@<TRIPOS>ATOM
      1 N          61.9298   89.2431   11.6282 N.3     1  UNL1       -0.2661
      2 C          62.2659   89.5986   13.0461 C.3     1  UNL1        0.0926
      3 C          63.6554   90.0395   13.3996 C.3     1  UNL1        0.0950
      4 N          64.1381   91.3991   12.9889 N.am    1  UNL1       -0.2706
      5 C          65.4842   91.8845   13.4388 C.2     1  UNL1        0.4020
      6 O          66.0652   91.5707   13.8855 O.2     1  UNL1       -0.2264
      7 H          63.5715   91.9728   12.4241 H       1  UNL1        0.1527
      8 O          65.9670   93.2440   13.0281 O.3     1  UNL1       -0.4274
      9 C          65.7612   93.7193   11.6204 C.3     1  UNL1        0.2621
     10 C          66.8191   93.4776   10.5850 C.ar    1  UNL1        0.1323
     11 N          67.8283   92.3679   10.5979 N.ar    1  UNL1       -0.2374
     12 C          68.6866   92.5076    9.3757 C.ar    1  UNL1        0.1062
     13 C          68.2079   93.7036    8.6073 C.ar    1  UNL1        0.0573
     14 S          67.0537   94.3032    9.3547 S.2     1  UNL1       -0.0666
     15 C          64.5621   89.1209   14.1638 C.3     1  UNL1        0.0474
     16 C          64.0181   88.3009   15.2958 C.ar    1  UNL1       -0.0205
     17 C          63.2711   88.9670   16.4131 C.ar    1  UNL1       -0.0042
     18 C          62.7270   88.1469   17.5452 C.ar    1  UNL1       -0.0003
     19 C          62.9300   86.6608   17.5599 C.ar    1  UNL1       -0.0000
     20 C          63.6770   85.9947   16.4426 C.ar    1  UNL1       -0.0003
     21 C          64.2211   86.8147   15.3106 C.ar    1  UNL1       -0.0042
     22 C          62.6480   88.1159   10.9471 C.3     1  UNL1        0.0926
     23 C          62.3135   86.6954   11.2935 C.3     1  UNL1        0.0950
     24 N          62.9613   86.0394   12.4767 N.am    1  UNL1       -0.2706
     25 C          63.5555   84.6687   12.3423 C.2     1  UNL1        0.4020
     26 O          63.6770   83.6921   11.2103 O.2     1  UNL1       -0.2264
     27 H          62.9965   86.5085   13.3416 H       1  UNL1        0.1527
     28 O          64.2034   84.0128   13.5256 O.3     1  UNL1       -0.4291
     29 C          63.3702   83.2371   14.5025 C.3     1  UNL1        0.2447
     30 C          62.7318   81.9458   14.0842 C.ar    1  UNL1        0.0714
     31 C          61.3140   81.5359   14.3521 C.ar    1  UNL1        0.1053
     32 N          61.1049   80.1744   13.7581 N.ar    1  UNL1       -0.2350
     33 C          62.3935   79.7429   13.1231 C.ar    1  UNL1        0.1343
     34 S          63.3991   80.8377   13.3247 S.2     1  UNL1       -0.0652
     35 C          61.3312   85.9307   10.4567 C.3     1  UNL1        0.0474
     36 C          61.6937   85.5229    9.0594 C.ar    1  UNL1       -0.0205
     37 C          60.6229   85.3764    8.0192 C.ar    1  UNL1       -0.0042
     38 C          60.9854   84.9686    6.6220 C.ar    1  UNL1       -0.0003
     39 C          62.4186   84.7073    6.2649 C.ar    1  UNL1       -0.0000
     40 C          63.4894   84.8538    7.3051 C.ar    1  UNL1       -0.0003
     41 C          63.1269   85.2616    8.7023 C.ar    1  UNL1       -0.0042
     42 C          60.8755   90.0147   10.8913 C.3     1  UNL1        0.0993
     43 C          59.6689   89.4484    7.1532 C.ar    1  UNL1        0.1385
     44 C          58.8524   88.1993    7.3049 C.ar    1  UNL1        0.0369
     45 C          58.7103   87.5553    8.6522 C.ar    1  UNL1        0.0028
     46 C          59.3846   88.1604    9.8476 C.ar    1  UNL1       -0.0027
     47 C          60.2011   89.4095    9.6958 C.ar    1  UNL1       -0.0031
     48 C          60.3433   90.0535    8.3486 C.ar    1  UNL1        0.0340
     49 C          58.7643   91.0498    5.3180 C.3     1  UNL1        0.2525
     50 O          59.8111   90.0925    5.8059 O.3     1  UNL1       -0.4714
@<TRIPOS>BOND
     1    49    50    1
     2    50    43    1
     3    43    44   ar
     4    44    45   ar
     5    45    46   ar
     6    46    47   ar
     7    47    42    1
     8    42     1    1
     9     1     2    1
    10     3     2    1
    11     3    15    1
    12    15    16    1
    13    16    17   ar
    14    17    18   ar
    15    18    19   ar
    16    19    20   ar
    17    20    21   ar
    18     3     4    1
    19     4     5   am
    20     5     6    2
    21     5     8    1
    22     8     9    1
    23     9    10    1
    24    10    11   ar
    25    11    12   ar
    26    12    13   ar
    27    13    14   ar
    28     1    22    1
    29    23    22    1
    30    23    35    1
    31    35    36    1
    32    36    37   ar
    33    37    38   ar
    34    38    39   ar
    35    39    40   ar
    36    40    41   ar
    37    23    24    1
    38    24    25   am
    39    25    26    2
    40    25    28    1
    41    28    29    1
    42    29    30    1
    43    30    31   ar
    44    31    32   ar
    45    32    33   ar
    46    33    34   ar
    47    47    48   ar
    48    48    43   ar
    49    21    16   ar
    50    14    10   ar
    51    41    36   ar
    52    34    30   ar
    53     4     7    1
    54    24    27    1
@<TRIPOS>MOLECULE
*****
 50 54 0 0 0
SMALL
GASTEIGER

@<TRIPOS>ATOM
      1 N          61.7451   89.2237   11.3950 N.3     1  UNL1       -0.2661
      2 C          60.3957   89.1779   10.7416 C.3     1  UNL1        0.0926
      3 C          60.2335   88.5258    9.4006 C.3     1  UNL1        0.0950
      4 N          60.3225   89.3497    8.1502 N.am    1  UNL1       -0.2706
      5 C          59.2844   89.1998    7.0778 C.2     1  UNL1        0.4020
      6 O          58.6328   88.7478    6.9971 O.2     1  UNL1       -0.2264
      7 H          61.0622   89.9888    8.0334 H       1  UNL1        0.1527
      8 O          59.3734   90.0237    5.8275 O.3     1  UNL1       -0.4274
      9 C          60.6239   90.7949    5.5249 C.3     1  UNL1        0.2621
     10 C          60.6893   91.6702    4.3085 C.ar    1  UNL1        0.1323
     11 N          61.9046   91.9180    3.4649 N.ar    1  UNL1       -0.2374
     12 C          61.5174   92.8524    2.3572 C.ar    1  UNL1        0.1062
     13 C          60.0627   93.1821    2.5162 C.ar    1  UNL1        0.0573
     14 S          59.5509   92.4515    3.7222 S.2     1  UNL1       -0.0666
     15 C          59.9823   87.0498    9.3098 C.3     1  UNL1        0.0474
     16 C          60.8548   86.1924    8.4418 C.ar    1  UNL1       -0.0205
     17 C          62.2877   85.9576    8.8181 C.ar    1  UNL1       -0.0042
     18 C          63.1603   85.1002    7.9499 C.ar    1  UNL1       -0.0003
     19 C          62.5999   84.4777    6.7056 C.ar    1  UNL1       -0.0000
     20 C          61.1670   84.7126    6.3293 C.ar    1  UNL1       -0.0003
     21 C          60.2945   85.5699    7.1973 C.ar    1  UNL1       -0.0042
     22 C          62.1062   90.3716   12.2905 C.3     1  UNL1        0.0926
     23 C          63.4161   91.0800   12.1105 C.3     1  UNL1        0.0950
     24 N          64.2895   91.3550   13.2986 N.am    1  UNL1       -0.2706
     25 C          63.8747   90.8815   14.6601 C.2     1  UNL1        0.4020
     26 O          62.6889   90.1274   15.1845 O.2     1  UNL1       -0.2264
     27 H          65.1350   91.8464   13.1848 H       1  UNL1        0.1527
     28 O          64.7482   91.1565   15.8481 O.3     1  UNL1       -0.4291
     29 C          65.5258   92.4368   15.9270 C.3     1  UNL1        0.2447
     30 C          66.9179   92.5041   15.3724 C.ar    1  UNL1        0.0714
     31 C          67.3414   92.0757   13.9987 C.ar    1  UNL1        0.1053
     32 N          68.8162   92.3185   13.8715 N.ar    1  UNL1       -0.2350
     33 C          69.3041   92.8969   15.1666 C.ar    1  UNL1        0.1343
     34 S          68.1310   93.0117   16.0943 S.2     1  UNL1       -0.0652
     35 C          63.8525   91.5134   10.7425 C.3     1  UNL1        0.0474
     36 C          65.0671   92.3789   10.5818 C.ar    1  UNL1       -0.0205
     37 C          64.9420   93.8710   10.6719 C.ar    1  UNL1       -0.0042
     38 C          66.1565   94.7365   10.5112 C.ar    1  UNL1       -0.0003
     39 C          67.4960   94.1099   10.2603 C.ar    1  UNL1       -0.0000
     40 C          67.6211   92.6179   10.1702 C.ar    1  UNL1       -0.0003
     41 C          66.4066   91.7524   10.3309 C.ar    1  UNL1       -0.0042
     42 C          62.7334   88.1215   11.1530 C.3     1  UNL1        0.0993
     43 C          63.0490   84.8176   13.3288 C.ar    1  UNL1        0.1385
     44 C          63.8449   85.3218   14.4960 C.ar    1  UNL1        0.0369
     45 C          64.2703   86.7593   14.5489 C.ar    1  UNL1        0.0028
     46 C          63.8998   87.6925   13.4345 C.ar    1  UNL1       -0.0027
     47 C          63.1039   87.1883   12.2673 C.ar    1  UNL1       -0.0031
     48 C          62.6785   85.7509   12.2145 C.ar    1  UNL1        0.0340
     49 C          62.6574   82.6354   11.9744 C.3     1  UNL1        0.2525
     50 O          62.6236   83.3801   13.2760 O.3     1  UNL1       -0.4714
@<TRIPOS>BOND
     1    49    50    1
     2    50    43    1
     3    43    44   ar
     4    44    45   ar
     5    45    46   ar
     6    46    47   ar
     7    47    42    1
     8    42     1    1
     9     1     2    1
    10     3     2    1
    11     3    15    1
    12    15    16    1
    13    16    17   ar
    14    17    18   ar
    15    18    19   ar
    16    19    20   ar
    17    20    21   ar
    18     3     4    1
    19     4     5   am
    20     5     6    2
    21     5     8    1
    22     8     9    1
    23     9    10    1
    24    10    11   ar
    25    11    12   ar
    26    12    13   ar
    27    13    14   ar
    28     1    22    1
    29    23    22    1
    30    23    35    1
    31    35    36    1
    32    36    37   ar
    33    37    38   ar
    34    38    39   ar
    35    39    40   ar
    36    40    41   ar
    37    23    24    1
    38    24    25   am
    39    25    26    2
    40    25    28    1
    41    28    29    1
    42    29    30    1
    43    30    31   ar
    44    31    32   ar
    45    32    33   ar
    46    33    34   ar
    47    47    48   ar
    48    48    43   ar
    49    21    16   ar
    50    14    10   ar
    51    41    36   ar
    52    34    30   ar
    53     4     7    1
    54    24    27    1
@<TRIPOS>MOLECULE
*****
 50 54 0 0 0
SMALL
GASTEIGER

@<TRIPOS>ATOM
      1 N          62.4137   88.1980   12.3550 N.3     1  UNL1       -0.2661
      2 C          61.2434   88.9658   11.8156 C.3     1  UNL1        0.0926
      3 C          61.4701   90.2115   11.0114 C.3     1  UNL1        0.0950
      4 N          62.4349   91.2526   11.4969 N.am    1  UNL1       -0.2706
      5 C          63.6485   91.5886   10.6820 C.2     1  UNL1        0.4020
      6 O          63.9386   91.3274    9.9870 O.2     1  UNL1       -0.2264
      7 H          62.2715   91.7152   12.3505 H       1  UNL1        0.1527
      8 O          64.6132   92.6296   11.1675 O.3     1  UNL1       -0.4274
      9 C          65.8929   92.8714   10.4233 C.3     1  UNL1        0.2621
     10 C          66.3588   94.2742   10.1685 C.ar    1  UNL1        0.1323
     11 N          66.1034   95.4617   11.0487 N.ar    1  UNL1       -0.2374
     12 C          66.7486   96.6573   10.4130 C.ar    1  UNL1        0.1062
     13 C          67.4029   96.2088    9.1398 C.ar    1  UNL1        0.0573
     14 S          67.1620   94.7360    8.9888 S.2     1  UNL1       -0.0666
     15 C          60.7322   90.4163    9.7216 C.3     1  UNL1        0.0474
     16 C          60.1406   89.2411    9.0013 C.ar    1  UNL1       -0.0205
     17 C          59.8087   87.9881    9.7562 C.ar    1  UNL1       -0.0042
     18 C          59.2171   86.8129    9.0358 C.ar    1  UNL1       -0.0003
     19 C          58.9575   86.8907    7.5605 C.ar    1  UNL1       -0.0000
     20 C          59.2894   88.1436    6.8056 C.ar    1  UNL1       -0.0003
     21 C          59.8809   89.3188    7.5259 C.ar    1  UNL1       -0.0042
     22 C          63.6148   88.9297   12.8766 C.3     1  UNL1        0.0926
     23 C          63.6195   89.4590   14.2801 C.3     1  UNL1        0.0950
     24 N          63.4071   88.5251   15.4345 N.am    1  UNL1       -0.2706
     25 C          64.0793   87.1842   15.4480 C.2     1  UNL1        0.4020
     26 O          65.0018   86.4715   14.5040 O.2     1  UNL1       -0.2264
     27 H          62.8266   88.7922   16.1834 H       1  UNL1        0.1527
     28 O          63.8669   86.2503   16.6024 O.3     1  UNL1       -0.4291
     29 C          62.7883   85.2100   16.5369 C.3     1  UNL1        0.2447
     30 C          62.9246   84.0463   15.6003 C.ar    1  UNL1        0.0714
     31 C          64.1950   83.3155   15.2811 C.ar    1  UNL1        0.1053
     32 N          63.8700   82.2266   14.3020 N.ar    1  UNL1       -0.2350
     33 C          62.3987   82.2844   14.0160 C.ar    1  UNL1        0.1343
     34 S          61.8143   83.4090   14.8184 S.2     1  UNL1       -0.0652
     35 C          63.8365   90.9221   14.5291 C.3     1  UNL1        0.0474
     36 C          65.2218   91.4443   14.7712 C.ar    1  UNL1       -0.0205
     37 C          66.2952   91.2261   13.7464 C.ar    1  UNL1       -0.0042
     38 C          67.6804   91.7483   13.9884 C.ar    1  UNL1       -0.0003
     39 C          67.9921   92.4886   15.2552 C.ar    1  UNL1       -0.0000
     40 C          66.9187   92.7068   16.2800 C.ar    1  UNL1       -0.0003
     41 C          65.5335   92.1846   16.0380 C.ar    1  UNL1       -0.0042
     42 C          62.3829   86.6984   12.3727 C.3     1  UNL1        0.0993
     43 C          63.6733   83.7779   10.0157 C.ar    1  UNL1        0.1385
     44 C          63.4410   84.3821    8.6626 C.ar    1  UNL1        0.0369
     45 C          62.8559   85.7584    8.5461 C.ar    1  UNL1        0.0028
     46 C          62.5032   86.5305    9.7828 C.ar    1  UNL1       -0.0027
     47 C          62.7356   85.9263   11.1360 C.ar    1  UNL1       -0.0031
     48 C          63.3206   84.5500   11.2524 C.ar    1  UNL1        0.0340
     49 C          63.3981   81.2562   10.5771 C.3     1  UNL1        0.2525
     50 O          64.2584   82.4016   10.1322 O.3     1  UNL1       -0.4714
@<TRIPOS>BOND
     1    49    50    1
     2    50    43    1
     3    43    44   ar
     4    44    45   ar
     5    45    46   ar
     6    46    47   ar
     7    47    42    1
     8    42     1    1
     9     1     2    1
    10     3     2    1
    11     3    15    1
    12    15    16    1
    13    16    17   ar
    14    17    18   ar
    15    18    19   ar
    16    19    20   ar
    17    20    21   ar
    18     3     4    1
    19     4     5   am
    20     5     6    2
    21     5     8    1
    22     8     9    1
    23     9    10    1
    24    10    11   ar
    25    11    12   ar
    26    12    13   ar
    27    13    14   ar
    28     1    22    1
    29    23    22    1
    30    23    35    1
    31    35    36    1
    32    36    37   ar
    33    37    38   ar
    34    38    39   ar
    35    39    40   ar
    36    40    41   ar
    37    23    24    1
    38    24    25   am
    39    25    26    2
    40    25    28    1
    41    28    29    1
    42    29    30    1
    43    30    31   ar
    44    31    32   ar
    45    32    33   ar
    46    33    34   ar
    47    47    48   ar
    48    48    43   ar
    49    21    16   ar
    50    14    10   ar
    51    41    36   ar
    52    34    30   ar
    53     4     7    1
    54    24    27    1
@<TRIPOS>MOLECULE
*****
 50 54 0 0 0
SMALL
GASTEIGER

@<TRIPOS>ATOM
      1 N          62.2205   90.3228   11.3858 N.3     1  UNL1       -0.2661
      2 C          62.3542   89.5309   12.6527 C.3     1  UNL1        0.0926
      3 C          63.2309   88.3143   12.6877 C.3     1  UNL1        0.0950
      4 N          63.0963   87.2621   11.6272 N.am    1  UNL1       -0.2706
      5 C          62.4106   85.9652   11.9402 C.2     1  UNL1        0.4020
      6 O          62.0656   85.6646   12.5929 O.2     1  UNL1       -0.2264
      7 H          63.4580   87.4226   10.7257 H       1  UNL1        0.1527
      8 O          62.2760   84.9130   10.8797 O.3     1  UNL1       -0.4274
      9 C          63.3070   83.8297   10.7628 C.3     1  UNL1        0.2621
     10 C          63.2752   82.6598   11.7010 C.ar    1  UNL1        0.1323
     11 N          62.7919   81.2784   11.3718 N.ar    1  UNL1       -0.2374
     12 C          62.9392   80.4306   12.6004 C.ar    1  UNL1        0.1062
     13 C          63.5135   81.2880   13.6891 C.ar    1  UNL1        0.0573
     14 S          63.7212   82.6657   13.1332 S.2     1  UNL1       -0.0666
     15 C          64.2423   88.1499   13.7832 C.3     1  UNL1        0.0474
     16 C          63.8203   87.6144   15.1193 C.ar    1  UNL1       -0.0205
     17 C          63.3020   88.5487   16.1721 C.ar    1  UNL1       -0.0042
     18 C          62.8801   88.0131   17.5082 C.ar    1  UNL1       -0.0003
     19 C          62.9765   86.5433   17.7915 C.ar    1  UNL1       -0.0000
     20 C          63.4948   85.6090   16.7387 C.ar    1  UNL1       -0.0003
     21 C          63.9167   86.1445   15.4026 C.ar    1  UNL1       -0.0042
     22 C          63.4348   90.9338   10.7515 C.3     1  UNL1        0.0926
     23 C          64.4411   91.6546   11.5987 C.3     1  UNL1        0.0950
     24 N          64.0643   92.1284   12.9711 N.am    1  UNL1       -0.2706
     25 C          64.7042   91.5117   14.1794 C.2     1  UNL1        0.4020
     26 O          65.7276   90.4337   14.3807 O.2     1  UNL1       -0.2264
     27 H          63.3969   92.8442   13.0788 H       1  UNL1        0.1527
     28 O          64.3274   91.9855   15.5518 O.3     1  UNL1       -0.4291
     29 C          65.3844   92.4977   16.4849 C.3     1  UNL1        0.2447
     30 C          66.7721   92.7556   15.9772 C.ar    1  UNL1        0.0714
     31 C          67.1388   93.6453   14.8265 C.ar    1  UNL1        0.1053
     32 N          68.6300   93.6086   14.6691 N.ar    1  UNL1       -0.2350
     33 C          69.1850   92.6963   15.7225 C.ar    1  UNL1        0.1343
     34 S          68.0368   92.1691   16.5310 S.2     1  UNL1       -0.0652
     35 C          65.8242   91.9017   11.0734 C.3     1  UNL1        0.0474
     36 C          66.2474   93.2914   10.6996 C.ar    1  UNL1       -0.0205
     37 C          65.7479   94.4652   11.4887 C.ar    1  UNL1       -0.0042
     38 C          66.1711   95.8549   11.1150 C.ar    1  UNL1       -0.0003
     39 C          67.0938   96.0707    9.9522 C.ar    1  UNL1       -0.0000
     40 C          67.5933   94.8969    9.1632 C.ar    1  UNL1       -0.0003
     41 C          67.1701   93.5072    9.5369 C.ar    1  UNL1       -0.0042
     42 C          60.8725   90.5038   10.7532 C.3     1  UNL1        0.0993
     43 C          59.5488   88.9222    7.3626 C.ar    1  UNL1        0.1385
     44 C          59.3639   87.4907    7.7708 C.ar    1  UNL1        0.0369
     45 C          59.6819   87.0635    9.1731 C.ar    1  UNL1        0.0028
     46 C          60.1848   88.0679   10.1672 C.ar    1  UNL1       -0.0027
     47 C          60.3697   89.4994    9.7591 C.ar    1  UNL1       -0.0031
     48 C          60.0517   89.9265    8.3568 C.ar    1  UNL1        0.0340
     49 C          58.8590   90.7746    5.6765 C.3     1  UNL1        0.2525
     50 O          59.2308   89.3493    5.9603 O.3     1  UNL1       -0.4714
@<TRIPOS>BOND
     1    49    50    1
     2    50    43    1
     3    43    44   ar
     4    44    45   ar
     5    45    46   ar
     6    46    47   ar
     7    47    42    1
     8    42     1    1
     9     1     2    1
    10     3     2    1
    11     3    15    1
    12    15    16    1
    13    16    17   ar
    14    17    18   ar
    15    18    19   ar
    16    19    20   ar
    17    20    21   ar
    18     3     4    1
    19     4     5   am
    20     5     6    2
    21     5     8    1
    22     8     9    1
    23     9    10    1
    24    10    11   ar
    25    11    12   ar
    26    12    13   ar
    27    13    14   ar
    28     1    22    1
    29    23    22    1
    30    23    35    1
    31    35    36    1
    32    36    37   ar
    33    37    38   ar
    34    38    39   ar
    35    39    40   ar
    36    40    41   ar
    37    23    24    1
    38    24    25   am
    39    25    26    2
    40    25    28    1
    41    28    29    1
    42    29    30    1
    43    30    31   ar
    44    31    32   ar
    45    32    33   ar
    46    33    34   ar
    47    47    48   ar
    48    48    43   ar
    49    21    16   ar
    50    14    10   ar
    51    41    36   ar
    52    34    30   ar
    53     4     7    1
    54    24    27    1
@<TRIPOS>MOLECULE
*****
 50 54 0 0 0
SMALL
GASTEIGER

@<TRIPOS>ATOM
      1 N          62.7936   88.4572   12.2464 N.3     1  UNL1       -0.2661
      2 C          62.5405   89.9031   11.9377 C.3     1  UNL1        0.0926
      3 C          62.4541   90.3618   10.5122 C.3     1  UNL1        0.0950
      4 N          61.6539   89.5736    9.5179 N.am    1  UNL1       -0.2706
      5 C          60.1775   89.8060    9.3904 C.2     1  UNL1        0.4020
      6 O          59.6598   90.2910    9.7541 O.2     1  UNL1       -0.2264
      7 H          62.0977   88.9038    8.9490 H       1  UNL1        0.1527
      8 O          59.3773   89.0180    8.3962 O.3     1  UNL1       -0.4274
      9 C          59.7460   89.0499    6.9426 C.3     1  UNL1        0.2621
     10 C          59.1897   90.1203    6.0511 C.ar    1  UNL1        0.1323
     11 N          57.7387   90.4614    5.8826 N.ar    1  UNL1       -0.2374
     12 C          57.6389   91.5894    4.8989 C.ar    1  UNL1        0.1062
     13 C          59.0282   91.9455    4.4593 C.ar    1  UNL1        0.0573
     14 S          59.9866   91.0374    5.1714 S.2     1  UNL1       -0.0666
     15 C          63.1680   91.6085   10.0809 C.3     1  UNL1        0.0474
     16 C          64.4615   91.9961   10.7338 C.ar    1  UNL1       -0.0205
     17 C          64.5325   92.1515   12.2241 C.ar    1  UNL1       -0.0042
     18 C          65.8261   92.5391   12.8770 C.ar    1  UNL1       -0.0003
     19 C          67.0488   92.7713   12.0397 C.ar    1  UNL1       -0.0000
     20 C          66.9779   92.6159   10.5495 C.ar    1  UNL1       -0.0003
     21 C          65.6843   92.2283    9.8965 C.ar    1  UNL1       -0.0042
     22 C          63.9971   88.0613   13.0496 C.3     1  UNL1        0.0926
     23 C          64.1713   88.5816   14.4456 C.3     1  UNL1        0.0950
     24 N          64.6312   89.9918   14.6685 N.am    1  UNL1       -0.2706
     25 C          63.9978   90.8265   15.7418 C.2     1  UNL1        0.4020
     26 O          62.9126   90.5816   16.7481 O.2     1  UNL1       -0.2264
     27 H          65.3488   90.3696   14.1104 H       1  UNL1        0.1527
     28 O          64.4576   92.2367   15.9648 O.3     1  UNL1       -0.4291
     29 C          65.6950   92.5037   16.7697 C.3     1  UNL1        0.2447
     30 C          67.0194   92.6536   16.0816 C.ar    1  UNL1        0.0714
     31 C          67.7399   93.9445   15.8274 C.ar    1  UNL1        0.1053
     32 N          69.0217   93.6277   15.1156 N.ar    1  UNL1       -0.2350
     33 C          69.0934   92.1409   14.9299 C.ar    1  UNL1        0.1343
     34 S          67.8560   91.5389   15.5269 S.2     1  UNL1       -0.0652
     35 C          63.8857   87.6916   15.6187 C.3     1  UNL1        0.0474
     36 C          63.8428   86.2030   15.4380 C.ar    1  UNL1       -0.0205
     37 C          64.9928   85.4932   14.7871 C.ar    1  UNL1       -0.0042
     38 C          64.9500   84.0048   14.6064 C.ar    1  UNL1       -0.0003
     39 C          63.7572   83.2262   15.0765 C.ar    1  UNL1       -0.0000
     40 C          62.6072   83.9361   15.7274 C.ar    1  UNL1       -0.0003
     41 C          62.6500   85.4245   15.9081 C.ar    1  UNL1       -0.0042
     42 C          61.8434   87.4072   11.7519 C.3     1  UNL1        0.0993
     43 C          63.2996   83.8135   10.9064 C.ar    1  UNL1        0.1385
     44 C          63.3952   83.8909    9.4115 C.ar    1  UNL1        0.0369
     45 C          62.9734   85.1404    8.6966 C.ar    1  UNL1        0.0028
     46 C          62.4562   86.3125    9.4767 C.ar    1  UNL1       -0.0027
     47 C          62.3607   86.2351   10.9717 C.ar    1  UNL1       -0.0031
     48 C          62.7824   84.9857   11.6865 C.ar    1  UNL1        0.0340
     49 C          62.7156   81.4892   11.9096 C.3     1  UNL1        0.2525
     50 O          63.7214   82.5640   11.6213 O.3     1  UNL1       -0.4714
@<TRIPOS>BOND
     1    49    50    1
     2    50    43    1
     3    43    44   ar
     4    44    45   ar
     5    45    46   ar
     6    46    47   ar
     7    47    42    1
     8    42     1    1
     9     1     2    1
    10     3     2    1
    11     3    15    1
    12    15    16    1
    13    16    17   ar
    14    17    18   ar
    15    18    19   ar
    16    19    20   ar
    17    20    21   ar
    18     3     4    1
    19     4     5   am
    20     5     6    2
    21     5     8    1
    22     8     9    1
    23     9    10    1
    24    10    11   ar
    25    11    12   ar
    26    12    13   ar
    27    13    14   ar
    28     1    22    1
    29    23    22    1
    30    23    35    1
    31    35    36    1
    32    36    37   ar
    33    37    38   ar
    34    38    39   ar
    35    39    40   ar
    36    40    41   ar
    37    23    24    1
    38    24    25   am
    39    25    26    2
    40    25    28    1
    41    28    29    1
    42    29    30    1
    43    30    31   ar
    44    31    32   ar
    45    32    33   ar
    46    33    34   ar
    47    47    48   ar
    48    48    43   ar
    49    21    16   ar
    50    14    10   ar
    51    41    36   ar
    52    34    30   ar
    53     4     7    1
    54    24    27    1
