@<TRIPOS>MOLECULE
*****
 63 69 0 0 0
SMALL
GASTEIGER

@<TRIPOS>ATOM
      1 N          58.7411   95.0184   -5.8999 N.3     1  UNL1       -0.1862
      2 C          59.8366   95.0297   -6.9244 C.3     1  UNL1        0.1775
      3 C          61.2540   95.2835   -6.5041 C.2     1  UNL1        0.2452
      4 O          62.3495   95.2948   -7.5288 O.2     1  UNL1       -0.2732
      5 N          61.5759   95.5259   -5.0593 N.am    1  UNL1       -0.2541
      6 C          62.9932   95.7796   -4.6390 C.3     1  UNL1        0.1577
      7 C          63.3151   96.0220   -3.1942 C.2     1  UNL1        0.2445
      8 O          64.7325   96.2757   -2.7739 O.2     1  UNL1       -0.2731
      9 N          62.2196   96.0106   -2.1695 N.am    1  UNL1       -0.2705
     10 C          60.8022   95.7569   -2.5898 C.3     1  UNL1        0.1359
     11 C          60.4804   95.5145   -4.0348 C.3     1  UNL1        0.1908
     12 N          59.0630   95.2608   -4.4551 N.am    1  UNL1       -0.1863
     13 C          57.9675   95.2495   -3.4304 C.2     1  UNL1        0.3191
     14 O          58.2893   95.4919   -1.9856 O.2     1  UNL1       -0.2512
     15 N          56.5501   94.9958   -3.8507 N.am    1  UNL1       -0.2836
     16 H          56.3388   94.8367   -4.7991 H       1  UNL1        0.1513
     17 C          57.3237   94.7647   -6.3202 C.3     1  UNL1        0.1188
     18 C          57.2701   92.2254   -5.7733 C.2     1  UNL1       -0.0034
     19 C          56.8792   93.3724   -6.6575 C.2     1  UNL1       -0.0071
     20 C          64.0887   95.7909   -5.6635 C.3     1  UNL1        0.0556
     21 C          64.7030   94.5005   -6.1190 C.ar    1  UNL1       -0.0198
     22 C          65.8345   94.5149   -7.1037 C.ar    1  UNL1       -0.0011
     23 C          66.4487   93.2244   -7.5592 C.ar    1  UNL1        0.0363
     24 C          65.9316   91.9197   -7.0300 C.ar    1  UNL1        0.1337
     25 O          66.5459   90.6292   -7.4855 O.3     1  UNL1       -0.5055
     26 C          64.8001   91.9052   -6.0453 C.ar    1  UNL1        0.0363
     27 C          64.1858   93.1957   -5.5898 C.ar    1  UNL1       -0.0011
     28 H          67.2527   90.6382   -8.1006 H       1  UNL1        0.2922
     29 C          62.5415   96.2530   -0.7247 C.3     1  UNL1        0.1217
     30 C          61.7626   95.5478    0.3458 C.ar    1  UNL1        0.0135
     31 C          60.3938   96.0335    0.7208 C.ar    1  UNL1       -0.0012
     32 C          59.6149   95.3283    1.7912 C.ar    1  UNL1       -0.0002
     33 C          60.2047   94.1373    2.4867 C.ar    1  UNL1        0.0016
     34 C          61.5735   93.6516    2.1117 C.ar    1  UNL1        0.0214
     35 C          62.4082   92.5131    2.6186 C.ar    1  UNL1        0.0719
     36 C          63.7030   92.5146    1.8613 C.ar    1  UNL1        0.0805
     37 N          63.6685   93.6541    0.8866 N.ar    1  UNL1       -0.3241
     38 C          64.7587   94.0257   -0.0743 C.3     1  UNL1        0.1305
     39 C          62.3524   94.3568    1.0413 C.ar    1  UNL1        0.0577
     40 C          62.0168   91.5432    3.6939 C.2     1  UNL1        0.2473
     41 O          62.8984   90.3694    4.0023 O.2     1  UNL1       -0.2701
     42 N          60.7439   91.7471    4.4607 N.am    1  UNL1       -0.3023
     43 H          60.1653   92.5175    4.2583 H       1  UNL1        0.1497
     44 C          60.3525   90.7773    5.5360 C.3     1  UNL1        0.0753
     45 C          60.8814   90.9486    6.9292 C.3     1  UNL1        0.0412
     46 C          60.4900   89.9789    8.0045 C.3     1  UNL1        0.0984
     47 N          59.5697   88.8378    7.6867 N.am    1  UNL1       -0.2459
     48 C          59.1782   87.8680    8.7620 C.2     1  UNL1        0.4046
     49 O          58.2579   86.7270    8.4441 O.2     1  UNL1       -0.2262
     50 C          59.0407   88.6665    6.2935 C.3     1  UNL1        0.0984
     51 C          59.4321   89.6363    5.2182 C.3     1  UNL1        0.0412
     52 O          59.7071   88.0393   10.1552 O.3     1  UNL1       -0.4418
     53 C          61.1858   88.1314   10.3901 C.3     1  UNL1        0.1378
     54 C          60.9840   89.4014   11.1622 C.3     1  UNL1        0.0437
     55 C          61.3876   86.8613    9.6180 C.3     1  UNL1        0.0437
     56 C          62.6643   88.2234   10.6250 C.3     1  UNL1        0.0437
     57 C          55.4546   94.9844   -2.8262 C.3     1  UNL1        0.1177
     58 C          54.0981   95.5229   -3.1726 C.ar    1  UNL1       -0.0025
     59 C          53.0606   95.6873   -2.1019 C.ar    1  UNL1       -0.0026
     60 C          51.7041   96.2257   -2.4484 C.ar    1  UNL1       -0.0003
     61 C          51.3851   96.5997   -3.8655 C.ar    1  UNL1       -0.0000
     62 C          52.4227   96.4353   -4.9363 C.ar    1  UNL1       -0.0003
     63 C          53.7791   95.8969   -4.5899 C.ar    1  UNL1       -0.0026
@<TRIPOS>BOND
     1    18    19    2
     2    19    17    1
     3    17     1    1
     4     1     2    1
     5     2     3    1
     6     3     4    2
     7     3     5   am
     8     5     6    1
     9     6    20    1
    10    20    21    1
    11    21    22   ar
    12    22    23   ar
    13    23    24   ar
    14    24    25    1
    15    24    26   ar
    16    26    27   ar
    17     6     7    1
    18     7     8    2
    19     7     9   am
    20     9    29    1
    21    29    30    1
    22    30    31   ar
    23    31    32   ar
    24    32    33   ar
    25    33    34   ar
    26    34    35   ar
    27    35    40    1
    28    40    41    2
    29    40    42   am
    30    42    44    1
    31    44    45    1
    32    45    46    1
    33    46    47    1
    34    47    48   am
    35    48    49    2
    36    48    52    1
    37    52    53    1
    38    53    54    1
    39    53    55    1
    40    53    56    1
    41    47    50    1
    42    50    51    1
    43    35    36   ar
    44    36    37   ar
    45    37    38    1
    46    37    39   ar
    47     9    10    1
    48    11    10    1
    49    11    12    1
    50    12    13   am
    51    13    14    2
    52    13    15   am
    53    15    57    1
    54    57    58    1
    55    58    59   ar
    56    59    60   ar
    57    60    61   ar
    58    61    62   ar
    59    62    63   ar
    60    12     1    1
    61    63    58   ar
    62    11     5    1
    63    27    21   ar
    64    39    30   ar
    65    39    34   ar
    66    51    44    1
    67    25    28    1
    68    42    43    1
    69    15    16    1
