@<TRIPOS>MOLECULE
*****
 31 33 0 0 0
SMALL
GASTEIGER

@<TRIPOS>ATOM
      1 C          61.9267   87.4849   11.1009 C.3     1  UNL1        0.1624
      2 O          62.7718   88.0321   12.2128 O.3     1  UNL1       -0.3320
      3 C          63.0225   89.4843   11.9329 C.3     1  UNL1        0.2371
      4 C          62.3324   89.8346   10.6480 C.3     1  UNL1        0.1895
      5 O          62.3214   91.1837    9.9925 O.3     1  UNL1       -0.3779
      6 C          61.6551   88.5989   10.1337 C.3     1  UNL1        0.1701
      7 O          60.8480   88.4954    8.8737 O.3     1  UNL1       -0.3794
      8 H          61.8038   91.1408    9.1732 H       1  UNL1        0.2106
      9 H          60.5212   87.5877    8.7727 H       1  UNL1        0.2105
     10 N          63.8228   90.4216   12.7879 N.ar    1  UNL1       -0.2694
     11 C          63.8952   90.4043   14.2860 C.ar    1  UNL1        0.1816
     12 N          64.8084   91.5128   14.7188 N.ar    1  UNL1       -0.2194
     13 C          65.3003   92.2152   13.4881 C.ar    1  UNL1        0.1481
     14 C          66.2243   93.3818   13.3000 C.ar    1  UNL1        0.1480
     15 N          66.8334   94.0562   14.4934 N.pl3   1  UNL1       -0.3413
     16 N          66.5391   93.8740   11.9185 N.ar    1  UNL1       -0.2078
     17 C          65.9299   93.1996   10.7251 C.ar    1  UNL1        0.2015
     18 N          65.0060   92.0330   10.9132 N.ar    1  UNL1       -0.2048
     19 C          64.6912   91.5409   12.2947 C.ar    1  UNL1        0.1690
     20 H          66.6268   93.7331   15.4001 H       1  UNL1        0.1438
     21 H          67.4398   94.8218   14.3699 H       1  UNL1        0.1438
     22 C          61.4389   86.0718   10.9777 C.3     1  UNL1        0.1050
     23 C          63.1154   84.7461    9.5005 C.3     1  UNL1        0.0900
     24 N          62.4219   84.9505   10.8147 N.3     1  UNL1       -0.2656
     25 C          62.7114   84.0336   11.9661 C.3     1  UNL1        0.0987
     26 C          62.8825   82.5625   11.7286 C.2     1  UNL1       -0.0120
     27 C          62.4869   81.5803   12.7911 C.2     1  UNL1       -0.0125
     28 C          61.9202   82.0693   14.0910 C.3     1  UNL1        0.0916
     29 N          62.8392   82.4522   15.2130 N.3     1  UNL1       -0.3175
     30 H          63.3353   81.6246   15.5436 H       1  UNL1        0.1192
     31 H          62.2944   82.8502   15.9779 H       1  UNL1        0.1192
@<TRIPOS>BOND
     1    23    24    1
     2    24    25    1
     3    25    26    1
     4    26    27    2
     5    27    28    1
     6    28    29    1
     7    24    22    1
     8     1    22    1
     9     1     2    1
    10     2     3    1
    11     3    10    1
    12    10    11   ar
    13    11    12   ar
    14    12    13   ar
    15    13    14   ar
    16    14    15    1
    17    14    16   ar
    18    16    17   ar
    19    17    18   ar
    20    18    19   ar
    21     3     4    1
    22     4     5    1
    23     4     6    1
    24     6     7    1
    25     6     1    1
    26    19    10   ar
    27    19    13   ar
    28    29    30    1
    29    29    31    1
    30    15    20    1
    31    15    21    1
    32     5     8    1
    33     7     9    1
@<TRIPOS>MOLECULE
*****
 31 33 0 0 0
SMALL
GASTEIGER

@<TRIPOS>ATOM
      1 C          63.6205   87.0148   15.7691 C.3     1  UNL1        0.1624
      2 O          64.0075   87.6952   14.4895 O.3     1  UNL1       -0.3320
      3 C          63.9120   89.1766   14.7050 C.3     1  UNL1        0.2371
      4 C          63.4661   89.4117   16.1177 C.3     1  UNL1        0.1895
      5 O          63.2400   90.7482   16.7600 O.3     1  UNL1       -0.3779
      6 C          63.2859   88.0757   16.7755 C.3     1  UNL1        0.1701
      7 O          62.8480   87.8416   18.1908 O.3     1  UNL1       -0.3794
      8 H          62.9554   90.6215   17.6786 H       1  UNL1        0.2106
      9 H          62.8118   86.8880   18.3646 H       1  UNL1        0.2105
     10 N          64.2102   90.2367   13.6865 N.ar    1  UNL1       -0.2694
     11 C          63.6397   90.3139   12.3014 C.ar    1  UNL1        0.1816
     12 N          64.2082   91.5306   11.6332 N.ar    1  UNL1       -0.2194
     13 C          65.1300   92.2053   12.6053 C.ar    1  UNL1        0.1481
     14 C          65.9684   93.4445   12.4989 C.ar    1  UNL1        0.1480
     15 N          65.9671   94.2442   11.2299 N.pl3   1  UNL1       -0.3413
     16 N          66.8080   93.8840   13.6616 N.ar    1  UNL1       -0.2078
     17 C          66.8093   93.0843   14.9306 C.ar    1  UNL1        0.2015
     18 N          65.9709   91.8451   15.0370 N.ar    1  UNL1       -0.2048
     19 C          65.1313   91.4056   13.8744 C.ar    1  UNL1        0.1690
     20 H          65.4160   93.9558   10.4668 H       1  UNL1        0.1438
     21 H          66.5174   95.0576   11.1601 H       1  UNL1        0.1438
     22 C          63.5760   85.5335   16.0016 C.3     1  UNL1        0.1050
     23 C          65.1783   84.3544   14.3305 C.3     1  UNL1        0.0900
     24 N          63.7935   84.5880   14.8576 N.3     1  UNL1       -0.2656
     25 C          62.6262   83.8759   14.2408 C.3     1  UNL1        0.0987
     26 C          62.6383   82.3808   14.1200 C.2     1  UNL1       -0.0120
     27 C          63.0209   81.7366   12.8204 C.2     1  UNL1       -0.0125
     28 C          63.3913   82.5874   11.6419 C.3     1  UNL1        0.0916
     29 N          64.8219   82.6741   11.1995 N.3     1  UNL1       -0.3175
     30 H          65.3742   83.1346   11.9229 H       1  UNL1        0.1192
     31 H          64.8784   83.2118   10.3346 H       1  UNL1        0.1192
@<TRIPOS>BOND
     1    23    24    1
     2    24    25    1
     3    25    26    1
     4    26    27    2
     5    27    28    1
     6    28    29    1
     7    24    22    1
     8     1    22    1
     9     1     2    1
    10     2     3    1
    11     3    10    1
    12    10    11   ar
    13    11    12   ar
    14    12    13   ar
    15    13    14   ar
    16    14    15    1
    17    14    16   ar
    18    16    17   ar
    19    17    18   ar
    20    18    19   ar
    21     3     4    1
    22     4     5    1
    23     4     6    1
    24     6     7    1
    25     6     1    1
    26    19    10   ar
    27    19    13   ar
    28    29    30    1
    29    29    31    1
    30    15    20    1
    31    15    21    1
    32     5     8    1
    33     7     9    1
@<TRIPOS>MOLECULE
*****
 31 33 0 0 0
SMALL
GASTEIGER

@<TRIPOS>ATOM
      1 C          62.7849   89.4967   11.9178 C.3     1  UNL1        0.1624
      2 O          63.1479   88.1802   12.5384 O.3     1  UNL1       -0.3320
      3 C          62.6944   87.0906   11.6125 C.3     1  UNL1        0.2371
      4 C          62.0512   87.7338   10.4198 C.3     1  UNL1        0.1895
      5 O          61.4565   87.0159    9.2446 O.3     1  UNL1       -0.3779
      6 C          62.1071   89.2208   10.6084 C.3     1  UNL1        0.1701
      7 O          61.5782   90.2510    9.6552 O.3     1  UNL1       -0.3794
      8 H          61.1070   87.6638    8.6130 H       1  UNL1        0.2106
      9 H          61.7406   91.1374   10.0142 H       1  UNL1        0.2105
     10 N          62.8558   85.6167   11.8395 N.ar    1  UNL1       -0.2694
     11 C          62.7511   84.5468   10.7935 C.ar    1  UNL1        0.1816
     12 N          62.9808   83.2229   11.4600 N.ar    1  UNL1       -0.2194
     13 C          63.2276   83.4745   12.9180 C.ar    1  UNL1        0.1481
     14 C          63.5126   82.5476   14.0623 C.ar    1  UNL1        0.1480
     15 N          63.5899   81.0680   13.8278 N.pl3   1  UNL1       -0.3413
     16 N          63.7204   83.1002   15.4412 N.ar    1  UNL1       -0.2078
     17 C          63.6432   84.5797   15.6758 C.ar    1  UNL1        0.2015
     18 N          63.3581   85.5066   14.5315 N.ar    1  UNL1       -0.2048
     19 C          63.1503   84.9540   13.1526 C.ar    1  UNL1        0.1690
     20 H          63.4535   80.7054   12.9227 H       1  UNL1        0.1438
     21 H          63.7770   80.4597   14.5788 H       1  UNL1        0.1438
     22 C          63.0527   90.8513   12.5039 C.3     1  UNL1        0.1050
     23 C          64.6670   92.0291   10.8434 C.3     1  UNL1        0.0900
     24 N          64.3544   91.5439   12.2279 N.3     1  UNL1       -0.2656
     25 C          65.3434   91.7512   13.3365 C.3     1  UNL1        0.0987
     26 C          66.1896   92.9894   13.3647 C.2     1  UNL1       -0.0120
     27 C          66.7938   93.4556   14.6562 C.2     1  UNL1       -0.0125
     28 C          66.5517   92.6836   15.9193 C.3     1  UNL1        0.0916
     29 N          65.2487   92.8277   16.6483 N.3     1  UNL1       -0.3175
     30 H          65.1648   93.7777   17.0101 H       1  UNL1        0.1192
     31 H          65.2173   92.1649   17.4229 H       1  UNL1        0.1192
@<TRIPOS>BOND
     1    23    24    1
     2    24    25    1
     3    25    26    1
     4    26    27    2
     5    27    28    1
     6    28    29    1
     7    24    22    1
     8     1    22    1
     9     1     2    1
    10     2     3    1
    11     3    10    1
    12    10    11   ar
    13    11    12   ar
    14    12    13   ar
    15    13    14   ar
    16    14    15    1
    17    14    16   ar
    18    16    17   ar
    19    17    18   ar
    20    18    19   ar
    21     3     4    1
    22     4     5    1
    23     4     6    1
    24     6     7    1
    25     6     1    1
    26    19    10   ar
    27    19    13   ar
    28    29    30    1
    29    29    31    1
    30    15    20    1
    31    15    21    1
    32     5     8    1
    33     7     9    1
@<TRIPOS>MOLECULE
*****
 31 33 0 0 0
SMALL
GASTEIGER

@<TRIPOS>ATOM
      1 C          61.9738   87.0247   10.9085 C.3     1  UNL1        0.1624
      2 O          62.8430   87.6478   11.9603 O.3     1  UNL1       -0.3320
      3 C          62.7726   89.1372   11.7972 C.3     1  UNL1        0.2371
      4 C          61.8599   89.4346   10.6446 C.3     1  UNL1        0.1895
      5 O          61.5035   90.7982   10.1313 O.3     1  UNL1       -0.3779
      6 C          61.3662   88.1290   10.0953 C.3     1  UNL1        0.1701
      7 O          60.4294   87.9578    8.9364 O.3     1  UNL1       -0.3794
      8 H          60.8968   90.7123    9.3794 H       1  UNL1        0.2106
      9 H          60.2704   87.0128    8.7861 H       1  UNL1        0.2105
     10 N          63.4891   90.1512   12.6389 N.ar    1  UNL1       -0.2694
     11 C          64.3682   91.2555   12.1314 C.ar    1  UNL1        0.1816
     12 N          64.8747   92.0256   13.3148 N.ar    1  UNL1       -0.2194
     13 C          64.3087   91.3972   14.5536 C.ar    1  UNL1        0.1481
     14 C          64.4624   91.7303   16.0080 C.ar    1  UNL1        0.1480
     15 N          65.3188   92.8888   16.4258 N.pl3   1  UNL1       -0.3413
     16 N          63.7598   90.9048   17.0447 N.ar    1  UNL1       -0.2078
     17 C          62.9034   89.7463   16.6270 C.ar    1  UNL1        0.2015
     18 N          62.7497   89.4132   15.1726 N.ar    1  UNL1       -0.2048
     19 C          63.4523   90.2387   14.1359 C.ar    1  UNL1        0.1690
     20 H          65.7800   93.4306   15.7453 H       1  UNL1        0.1438
     21 H          65.4197   93.1073   17.3804 H       1  UNL1        0.1438
     22 C          61.7512   85.5552   10.7056 C.3     1  UNL1        0.1050
     23 C          63.5760   83.7311   10.4003 C.3     1  UNL1        0.0900
     24 N          62.7080   84.5630   11.2973 N.3     1  UNL1       -0.2656
     25 C          62.7968   84.4027   12.7862 C.3     1  UNL1        0.0987
     26 C          64.0450   83.8497   13.4077 C.2     1  UNL1       -0.0120
     27 C          64.8313   84.6808   14.3778 C.2     1  UNL1       -0.0125
     28 C          64.3695   86.0648   14.7262 C.3     1  UNL1        0.0916
     29 N          63.4485   86.2770   15.8910 N.3     1  UNL1       -0.3175
     30 H          62.5476   85.8404   15.6960 H       1  UNL1        0.1192
     31 H          63.3162   87.2771   16.0420 H       1  UNL1        0.1192
@<TRIPOS>BOND
     1    23    24    1
     2    24    25    1
     3    25    26    1
     4    26    27    2
     5    27    28    1
     6    28    29    1
     7    24    22    1
     8     1    22    1
     9     1     2    1
    10     2     3    1
    11     3    10    1
    12    10    11   ar
    13    11    12   ar
    14    12    13   ar
    15    13    14   ar
    16    14    15    1
    17    14    16   ar
    18    16    17   ar
    19    17    18   ar
    20    18    19   ar
    21     3     4    1
    22     4     5    1
    23     4     6    1
    24     6     7    1
    25     6     1    1
    26    19    10   ar
    27    19    13   ar
    28    29    30    1
    29    29    31    1
    30    15    20    1
    31    15    21    1
    32     5     8    1
    33     7     9    1
@<TRIPOS>MOLECULE
*****
 31 33 0 0 0
SMALL
GASTEIGER

@<TRIPOS>ATOM
      1 C          63.0177   89.7158   12.1123 C.3     1  UNL1        0.1624
      2 O          63.3391   88.3482   12.6380 O.3     1  UNL1       -0.3320
      3 C          62.7612   87.3395   11.6900 C.3     1  UNL1        0.2371
      4 C          62.0827   88.0837   10.5785 C.3     1  UNL1        0.1895
      5 O          61.3707   87.4675    9.4109 O.3     1  UNL1       -0.3779
      6 C          62.2412   89.5524   10.8393 C.3     1  UNL1        0.1701
      7 O          61.7155   90.6625    9.9785 O.3     1  UNL1       -0.3794
      8 H          61.0212   88.1684    8.8386 H       1  UNL1        0.2106
      9 H          61.9545   91.5168   10.3709 H       1  UNL1        0.2105
     10 N          62.8469   85.8485   11.8293 N.ar    1  UNL1       -0.2694
     11 C          62.6228   84.8465   10.7357 C.ar    1  UNL1        0.1816
     12 N          62.8092   83.4764   11.3172 N.ar    1  UNL1       -0.2194
     13 C          63.1484   83.6316   12.7701 C.ar    1  UNL1        0.1481
     14 C          63.4391   82.6274   13.8457 C.ar    1  UNL1        0.1480
     15 N          63.4157   81.1613   13.5292 N.pl3   1  UNL1       -0.3413
     16 N          63.7531   83.0892   15.2378 N.ar    1  UNL1       -0.2078
     17 C          63.7764   84.5552   15.5543 C.ar    1  UNL1        0.2015
     18 N          63.4857   85.5594   14.4787 N.ar    1  UNL1       -0.2048
     19 C          63.1717   85.0976   13.0866 C.ar    1  UNL1        0.1690
     20 H          63.2096   80.8582   12.6154 H       1  UNL1        0.1438
     21 H          63.6065   80.5022   14.2352 H       1  UNL1        0.1438
     22 C          63.4048   91.0182   12.7479 C.3     1  UNL1        0.1050
     23 C          65.7709   91.8352   13.4437 C.3     1  UNL1        0.0900
     24 N          64.7113   91.6655   12.3956 N.3     1  UNL1       -0.2656
     25 C          64.9582   92.1432   10.9953 C.3     1  UNL1        0.0987
     26 C          65.4555   93.5379   10.7554 C.2     1  UNL1       -0.0120
     27 C          66.8400   93.7591   10.2221 C.2     1  UNL1       -0.0125
     28 C          67.7271   92.5856    9.9288 C.3     1  UNL1        0.0916
     29 N          69.2054   92.7842    9.7700 N.3     1  UNL1       -0.3175
     30 H          69.3855   93.3465    8.9383 H       1  UNL1        0.1192
     31 H          69.6617   91.8772    9.6727 H       1  UNL1        0.1192
@<TRIPOS>BOND
     1    23    24    1
     2    24    25    1
     3    25    26    1
     4    26    27    2
     5    27    28    1
     6    28    29    1
     7    24    22    1
     8     1    22    1
     9     1     2    1
    10     2     3    1
    11     3    10    1
    12    10    11   ar
    13    11    12   ar
    14    12    13   ar
    15    13    14   ar
    16    14    15    1
    17    14    16   ar
    18    16    17   ar
    19    17    18   ar
    20    18    19   ar
    21     3     4    1
    22     4     5    1
    23     4     6    1
    24     6     7    1
    25     6     1    1
    26    19    10   ar
    27    19    13   ar
    28    29    30    1
    29    29    31    1
    30    15    20    1
    31    15    21    1
    32     5     8    1
    33     7     9    1
@<TRIPOS>MOLECULE
*****
 31 33 0 0 0
SMALL
GASTEIGER

@<TRIPOS>ATOM
      1 C          61.9898   88.8172   11.2373 C.3     1  UNL1        0.1624
      2 O          62.6331   87.6474   11.9211 O.3     1  UNL1       -0.3320
      3 C          62.2893   86.4105   11.1452 C.3     1  UNL1        0.2371
      4 C          61.4337   86.8160    9.9819 C.3     1  UNL1        0.1895
      5 O          60.8632   85.8956    8.9439 O.3     1  UNL1       -0.3779
      6 C          61.2485   88.3035   10.0387 C.3     1  UNL1        0.1701
      7 O          60.4604   89.1316    9.0677 O.3     1  UNL1       -0.3794
      8 H          60.3481   86.4105    8.3032 H       1  UNL1        0.2106
      9 H          60.5001   90.0642    9.3314 H       1  UNL1        0.2105
     10 N          62.7249   85.0135   11.4748 N.ar    1  UNL1       -0.2694
     11 C          63.2493   84.0005   10.5007 C.ar    1  UNL1        0.1816
     12 N          63.5610   82.7452   11.2603 N.ar    1  UNL1       -0.2194
     13 C          63.2292   82.9823   12.7038 C.ar    1  UNL1        0.1481
     14 C          63.3309   82.1028   13.9146 C.ar    1  UNL1        0.1480
     15 N          63.8477   80.7009   13.7820 N.pl3   1  UNL1       -0.3413
     16 N          62.9159   82.6252   15.2580 N.ar    1  UNL1       -0.2078
     17 C          62.3991   84.0272   15.3905 C.ar    1  UNL1        0.2015
     18 N          62.2974   84.9067   14.1797 N.ar    1  UNL1       -0.2048
     19 C          62.7125   84.3842   12.8364 C.ar    1  UNL1        0.1690
     20 H          64.1201   80.3580   12.9003 H       1  UNL1        0.1438
     21 H          63.9144   80.1236   14.5767 H       1  UNL1        0.1438
     22 C          62.0732   90.2496   11.6752 C.3     1  UNL1        0.1050
     23 C          63.8801   91.6450   10.4351 C.3     1  UNL1        0.0900
     24 N          63.3957   90.9575   11.6771 N.3     1  UNL1       -0.2656
     25 C          64.2337   90.9778   12.9211 C.3     1  UNL1        0.0987
     26 C          63.5767   90.9296   14.2687 C.2     1  UNL1       -0.0120
     27 C          63.7723   89.7360   15.1560 C.2     1  UNL1       -0.0125
     28 C          64.6246   88.5908   14.6957 C.3     1  UNL1        0.0916
     29 N          63.9932   87.2703   14.3678 N.3     1  UNL1       -0.3175
     30 H          63.6010   86.8611   15.2157 H       1  UNL1        0.1192
     31 H          64.6986   86.6426   13.9821 H       1  UNL1        0.1192
@<TRIPOS>BOND
     1    23    24    1
     2    24    25    1
     3    25    26    1
     4    26    27    2
     5    27    28    1
     6    28    29    1
     7    24    22    1
     8     1    22    1
     9     1     2    1
    10     2     3    1
    11     3    10    1
    12    10    11   ar
    13    11    12   ar
    14    12    13   ar
    15    13    14   ar
    16    14    15    1
    17    14    16   ar
    18    16    17   ar
    19    17    18   ar
    20    18    19   ar
    21     3     4    1
    22     4     5    1
    23     4     6    1
    24     6     7    1
    25     6     1    1
    26    19    10   ar
    27    19    13   ar
    28    29    30    1
    29    29    31    1
    30    15    20    1
    31    15    21    1
    32     5     8    1
    33     7     9    1
@<TRIPOS>MOLECULE
*****
 31 33 0 0 0
SMALL
GASTEIGER

@<TRIPOS>ATOM
      1 C          63.6726   86.9129   15.8751 C.3     1  UNL1        0.1624
      2 O          64.2163   87.6656   14.6971 O.3     1  UNL1       -0.3320
      3 C          64.0846   89.1322   14.9832 C.3     1  UNL1        0.2371
      4 C          63.4596   89.2858   16.3381 C.3     1  UNL1        0.1895
      5 O          63.1445   90.5832   17.0217 O.3     1  UNL1       -0.3779
      6 C          63.2049   87.9142   16.8894 C.3     1  UNL1        0.1701
      7 O          62.5905   87.5993   18.2209 O.3     1  UNL1       -0.3794
      8 H          62.7451   90.4040   17.8873 H       1  UNL1        0.2106
      9 H          62.5383   86.6372   18.3335 H       1  UNL1        0.2105
     10 N          64.5044   90.2490   14.0741 N.ar    1  UNL1       -0.2694
     11 C          65.5338   91.2960   14.3808 C.ar    1  UNL1        0.1816
     12 N          65.6339   92.2090   13.1949 N.ar    1  UNL1       -0.2194
     13 C          64.6665   91.7262   12.1552 C.ar    1  UNL1        0.1481
     14 C          64.3310   92.2331   10.7839 C.ar    1  UNL1        0.1480
     15 N          65.0291   93.4444   10.2405 N.pl3   1  UNL1       -0.3413
     16 N          63.2975   91.5286    9.9560 N.ar    1  UNL1       -0.2078
     17 C          62.5993   90.3173   10.4994 C.ar    1  UNL1        0.2015
     18 N          62.9348   89.8104   11.8707 N.ar    1  UNL1       -0.2048
     19 C          63.9683   90.5149   12.6986 C.ar    1  UNL1        0.1690
     20 H          65.7075   93.9068   10.7839 H       1  UNL1        0.1438
     21 H          64.8090   93.7771    9.3404 H       1  UNL1        0.1438
     22 C          63.6080   85.4207   16.0145 C.3     1  UNL1        0.1050
     23 C          65.1843   84.2431   14.3178 C.3     1  UNL1        0.0900
     24 N          63.8005   84.5460   14.8112 N.3     1  UNL1       -0.2656
     25 C          62.6092   83.9743   14.1012 C.3     1  UNL1        0.0987
     26 C          62.7245   83.5461   12.6682 C.2     1  UNL1       -0.0120
     27 C          62.4626   82.1186   12.2887 C.2     1  UNL1       -0.0125
     28 C          62.0856   81.1196   13.3421 C.3     1  UNL1        0.0916
     29 N          63.1422   80.5288   14.2279 N.3     1  UNL1       -0.3175
     30 H          63.7742   79.9564   13.6681 H       1  UNL1        0.1192
     31 H          62.7018   79.9495   14.9426 H       1  UNL1        0.1192
@<TRIPOS>BOND
     1    23    24    1
     2    24    25    1
     3    25    26    1
     4    26    27    2
     5    27    28    1
     6    28    29    1
     7    24    22    1
     8     1    22    1
     9     1     2    1
    10     2     3    1
    11     3    10    1
    12    10    11   ar
    13    11    12   ar
    14    12    13   ar
    15    13    14   ar
    16    14    15    1
    17    14    16   ar
    18    16    17   ar
    19    17    18   ar
    20    18    19   ar
    21     3     4    1
    22     4     5    1
    23     4     6    1
    24     6     7    1
    25     6     1    1
    26    19    10   ar
    27    19    13   ar
    28    29    30    1
    29    29    31    1
    30    15    20    1
    31    15    21    1
    32     5     8    1
    33     7     9    1
@<TRIPOS>MOLECULE
*****
 31 33 0 0 0
SMALL
GASTEIGER

@<TRIPOS>ATOM
      1 C          61.9104   87.5663   11.1171 C.3     1  UNL1        0.1624
      2 O          62.7546   88.1067   12.2330 O.3     1  UNL1       -0.3320
      3 C          63.0230   89.5554   11.9515 C.3     1  UNL1        0.2371
      4 C          62.3448   89.9103   10.6616 C.3     1  UNL1        0.1895
      5 O          62.3528   91.2579   10.0030 O.3     1  UNL1       -0.3779
      6 C          61.6571   88.6810   10.1458 C.3     1  UNL1        0.1701
      7 O          60.8568   88.5835    8.8810 O.3     1  UNL1       -0.3794
      8 H          61.8398   91.2189    9.1806 H       1  UNL1        0.2106
      9 H          60.5206   87.6793    8.7800 H       1  UNL1        0.2105
     10 N          63.8284   90.4857   12.8093 N.ar    1  UNL1       -0.2694
     11 C          63.8764   90.4833   14.3085 C.ar    1  UNL1        0.1816
     12 N          64.8048   91.5779   14.7443 N.ar    1  UNL1       -0.2194
     13 C          65.3305   92.2568   13.5144 C.ar    1  UNL1        0.1481
     14 C          66.2808   93.4025   13.3289 C.ar    1  UNL1        0.1480
     15 N          66.8842   94.0775   14.5248 N.pl3   1  UNL1       -0.3413
     16 N          66.6276   93.8731   11.9475 N.ar    1  UNL1       -0.2078
     17 C          66.0241   93.1981   10.7517 C.ar    1  UNL1        0.2015
     18 N          65.0739   92.0524   10.9371 N.ar    1  UNL1       -0.2048
     19 C          64.7271   91.5818   12.3185 C.ar    1  UNL1        0.1690
     20 H          66.6566   93.7686   15.4314 H       1  UNL1        0.1438
     21 H          67.5079   94.8295   14.4031 H       1  UNL1        0.1438
     22 C          61.4078   86.1583   10.9940 C.3     1  UNL1        0.1050
     23 C          62.9868   84.4638   12.1709 C.3     1  UNL1        0.0900
     24 N          62.3802   85.0189   10.9163 N.3     1  UNL1       -0.2656
     25 C          62.7461   84.4345    9.5841 C.3     1  UNL1        0.0987
     26 C          63.1171   85.3378    8.4454 C.2     1  UNL1       -0.0120
     27 C          62.0950   85.6935    7.4067 C.2     1  UNL1       -0.0125
     28 C          60.7021   85.1459    7.5067 C.3     1  UNL1        0.0916
     29 N          59.5283   86.0797    7.5193 N.3     1  UNL1       -0.3175
     30 H          59.5515   86.6435    8.3691 H       1  UNL1        0.1192
     31 H          58.6636   85.5393    7.4934 H       1  UNL1        0.1192
@<TRIPOS>BOND
     1    23    24    1
     2    24    25    1
     3    25    26    1
     4    26    27    2
     5    27    28    1
     6    28    29    1
     7    24    22    1
     8     1    22    1
     9     1     2    1
    10     2     3    1
    11     3    10    1
    12    10    11   ar
    13    11    12   ar
    14    12    13   ar
    15    13    14   ar
    16    14    15    1
    17    14    16   ar
    18    16    17   ar
    19    17    18   ar
    20    18    19   ar
    21     3     4    1
    22     4     5    1
    23     4     6    1
    24     6     7    1
    25     6     1    1
    26    19    10   ar
    27    19    13   ar
    28    29    30    1
    29    29    31    1
    30    15    20    1
    31    15    21    1
    32     5     8    1
    33     7     9    1
@<TRIPOS>MOLECULE
*****
 31 33 0 0 0
SMALL
GASTEIGER

@<TRIPOS>ATOM
      1 C          64.0555   87.8819   13.9233 C.3     1  UNL1        0.1624
      2 O          63.0775   87.6017   12.8210 O.3     1  UNL1       -0.3320
      3 C          62.6464   88.9152   12.2388 C.3     1  UNL1        0.2371
      4 C          63.3580   90.0071   12.9813 C.3     1  UNL1        0.1895
      5 O          63.2225   91.4792   12.7273 O.3     1  UNL1       -0.3779
      6 C          64.2289   89.3686   14.0224 C.3     1  UNL1        0.1701
      7 O          65.1171   90.0899   14.9922 O.3     1  UNL1       -0.3794
      8 H          63.7896   91.9673   13.3446 H       1  UNL1        0.2106
      9 H          65.5714   89.4446   15.5562 H       1  UNL1        0.2105
     10 N          61.6744   89.1036   11.1120 N.ar    1  UNL1       -0.2694
     11 C          60.8485   90.3292   10.8557 C.ar    1  UNL1        0.1816
     12 N          60.0214   90.0825    9.6290 N.ar    1  UNL1       -0.2194
     13 C          60.3361   88.7044    9.1271 C.ar    1  UNL1        0.1481
     14 C          59.8244   87.9223    7.9539 C.ar    1  UNL1        0.1480
     15 N          58.8027   88.5273    7.0373 N.pl3   1  UNL1       -0.3413
     16 N          60.3343   86.5352    7.6973 N.ar    1  UNL1       -0.2078
     17 C          61.3560   85.9302    8.6139 C.ar    1  UNL1        0.2015
     18 N          61.8677   86.7123    9.7871 N.ar    1  UNL1       -0.2048
     19 C          61.3578   88.0994   10.0437 C.ar    1  UNL1        0.1690
     20 H          58.4680   89.4377    7.2057 H       1  UNL1        0.1438
     21 H          58.4668   88.0140    6.2673 H       1  UNL1        0.1438
     22 C          64.7399   86.8555   14.7767 C.3     1  UNL1        0.1050
     23 C          63.2054   86.2004   16.7682 C.3     1  UNL1        0.0900
     24 N          63.9293   85.8273   15.5086 N.3     1  UNL1       -0.2656
     25 C          63.8426   84.4258   14.9807 C.3     1  UNL1        0.0987
     26 C          62.6387   83.9926   14.1978 C.2     1  UNL1       -0.0120
     27 C          62.7701   83.6660   12.7396 C.2     1  UNL1       -0.0125
     28 C          64.1053   83.7727   12.0645 C.3     1  UNL1        0.0916
     29 N          64.9497   82.5476   11.8745 N.3     1  UNL1       -0.3175
     30 H          65.2462   82.1946   12.7844 H       1  UNL1        0.1192
     31 H          65.7708   82.7836   11.3174 H       1  UNL1        0.1192
@<TRIPOS>BOND
     1    23    24    1
     2    24    25    1
     3    25    26    1
     4    26    27    2
     5    27    28    1
     6    28    29    1
     7    24    22    1
     8     1    22    1
     9     1     2    1
    10     2     3    1
    11     3    10    1
    12    10    11   ar
    13    11    12   ar
    14    12    13   ar
    15    13    14   ar
    16    14    15    1
    17    14    16   ar
    18    16    17   ar
    19    17    18   ar
    20    18    19   ar
    21     3     4    1
    22     4     5    1
    23     4     6    1
    24     6     7    1
    25     6     1    1
    26    19    10   ar
    27    19    13   ar
    28    29    30    1
    29    29    31    1
    30    15    20    1
    31    15    21    1
    32     5     8    1
    33     7     9    1
