@<TRIPOS>MOLECULE
*****
 37 40 0 0 0
SMALL
GASTEIGER

@<TRIPOS>ATOM
      1 N          63.1658   88.2240   13.7841 N.pl3   1  UNL1       -0.3319
      2 H          62.3886   88.2498   14.3878 H       1  UNL1        0.1468
      3 C          63.9050   89.4880   13.4588 C.ar    1  UNL1        0.0577
      4 C          65.0113   89.9615   14.3543 C.ar    1  UNL1        0.0462
      5 C          65.7505   91.2255   14.0290 C.ar    1  UNL1        0.1602
      6 F          66.8569   91.6990   14.9245 F       1  UNL1       -0.2027
      7 C          65.3835   92.0161   12.8083 C.ar    1  UNL1        0.1534
      8 C          64.2771   91.5426   11.9127 C.ar    1  UNL1        0.0351
      9 C          63.5379   90.2786   12.2380 C.ar    1  UNL1        0.0722
     10 CL         62.4316   89.8051   11.3426 Cl      1  UNL1       -0.0809
     11 S          66.1226   93.2801   12.4830 S.O2    1  UNL1        0.0772
     12 O          65.7191   93.8570   13.8076 O.2     1  UNL1       -0.1498
     13 O          66.5261   92.7033   11.1585 O.2     1  UNL1       -0.1498
     14 N          66.8619   94.5442   12.1577 N.pl3   1  UNL1       -0.1936
     15 H          67.4342   94.9685   12.8372 H       1  UNL1        0.1758
     16 C          66.7290   95.1617   10.7972 C.ar    1  UNL1        0.1786
     17 N          67.7046   95.0218    9.6664 N.ar    1  UNL1       -0.2214
     18 C          67.1759   95.8011    8.4989 C.ar    1  UNL1        0.1079
     19 C          65.8735   96.4226    8.9081 C.ar    1  UNL1        0.0588
     20 S          65.5973   96.0274   10.3285 S.2     1  UNL1       -0.0497
     21 C          63.6107   86.9208   13.1895 C.3     1  UNL1        0.0874
     22 C          62.7709   86.2473   12.1450 C.3     1  UNL1        0.0252
     23 N          63.7932   81.0532   14.3400 N.3     1  UNL1       -0.3222
     24 C          63.4756   82.2885   13.5505 C.3     1  UNL1        0.0508
     25 C          63.5508   83.6364   14.2043 C.3     1  UNL1        0.0158
     26 C          63.2333   84.8716   13.4148 C.3     1  UNL1        0.0055
     27 C          62.8405   84.7590   11.9715 C.3     1  UNL1        0.0206
     28 C          62.7653   83.4111   11.3178 C.3     1  UNL1        0.0055
     29 C          63.0829   82.1758   12.1073 C.3     1  UNL1        0.0158
     30 H          64.0384   81.3139   15.2952 H       1  UNL1        0.1188
     31 H          64.5786   80.5663   13.9082 H       1  UNL1        0.1188
     32 C          62.4236   85.1632   10.5885 C.ar    1  UNL1       -0.0227
     33 C          63.2292   84.7210    9.4030 C.ar    1  UNL1       -0.0043
     34 C          62.8123   85.1252    8.0199 C.ar    1  UNL1       -0.0003
     35 C          61.5898   85.9716    7.8225 C.ar    1  UNL1       -0.0000
     36 C          60.7841   86.4138    9.0080 C.ar    1  UNL1       -0.0003
     37 C          61.2011   86.0096   10.3909 C.ar    1  UNL1       -0.0043
@<TRIPOS>BOND
     1    24    23    1
     2    24    25    1
     3    25    26    1
     4    26    27    1
     5    27    22    1
     6    22    21    1
     7    21     1    1
     8     1     3    1
     9     3     4   ar
    10     4     5   ar
    11     5     6    1
    12     5     7   ar
    13     7    11    1
    14    11    12    2
    15    11    13    2
    16    11    14    1
    17    14    16    1
    18    16    17   ar
    19    17    18   ar
    20    18    19   ar
    21    19    20   ar
    22     7     8   ar
    23     8     9   ar
    24     9    10    1
    25    27    32    1
    26    32    33   ar
    27    33    34   ar
    28    34    35   ar
    29    35    36   ar
    30    36    37   ar
    31    27    28    1
    32    28    29    1
    33    29    24    1
    34     9     3   ar
    35    37    32   ar
    36    20    16   ar
    37    23    30    1
    38    23    31    1
    39     1     2    1
    40    14    15    1
@<TRIPOS>MOLECULE
*****
 37 40 0 0 0
SMALL
GASTEIGER

@<TRIPOS>ATOM
      1 N          62.5331   89.0417   13.1088 N.pl3   1  UNL1       -0.3319
      2 H          62.4811   88.7386   14.0440 H       1  UNL1        0.1468
      3 C          63.4610   90.1586   12.7330 C.ar    1  UNL1        0.0577
      4 C          63.2717   90.8865   11.4351 C.ar    1  UNL1        0.0462
      5 C          64.1996   92.0034   11.0593 C.ar    1  UNL1        0.1602
      6 F          64.0102   92.7313    9.7614 F       1  UNL1       -0.2027
      7 C          65.3169   92.3927   11.9813 C.ar    1  UNL1        0.1534
      8 C          65.5063   91.6648   13.2792 C.ar    1  UNL1        0.0351
      9 C          64.5784   90.5478   13.6550 C.ar    1  UNL1        0.0722
     10 CL         64.7678   89.8200   14.9528 Cl      1  UNL1       -0.0809
     11 S          66.2448   93.5096   11.6054 S.O2    1  UNL1        0.0772
     12 O          66.7438   92.7039   10.4426 O.2     1  UNL1       -0.1498
     13 O          65.7459   94.3153   12.7682 O.2     1  UNL1       -0.1498
     14 N          67.1728   94.6266   11.2296 N.pl3   1  UNL1       -0.1936
     15 H          67.9400   94.8445   11.8067 H       1  UNL1        0.1758
     16 C          66.9317   95.4116    9.9743 C.ar    1  UNL1        0.1786
     17 N          67.8529   95.4904    8.7931 N.ar    1  UNL1       -0.2214
     18 C          67.2178   96.3830    7.7685 C.ar    1  UNL1        0.1079
     19 C          65.9040   96.8559    8.3165 C.ar    1  UNL1        0.0588
     20 S          65.7272   96.2555    9.6797 S.2     1  UNL1       -0.0497
     21 C          61.6845   88.3865   12.0598 C.3     1  UNL1        0.0874
     22 C          62.2978   87.4086   11.1019 C.3     1  UNL1        0.0252
     23 N          58.7126   88.6833    6.8166 N.3     1  UNL1       -0.3222
     24 C          59.6565   88.1179    7.8361 C.3     1  UNL1        0.0508
     25 C          60.1694   88.9864    8.9463 C.3     1  UNL1        0.0158
     26 C          61.1133   88.4211    9.9659 C.3     1  UNL1        0.0055
     27 C          61.5443   86.9872    9.8752 C.3     1  UNL1        0.0206
     28 C          61.0314   86.1187    8.7650 C.3     1  UNL1        0.0055
     29 C          60.0875   86.6841    7.7454 C.3     1  UNL1        0.0158
     30 H          58.5289   89.6636    7.0300 H       1  UNL1        0.1188
     31 H          57.8368   88.1609    6.8375 H       1  UNL1        0.1188
     32 C          62.2370   85.6997   10.2105 C.ar    1  UNL1       -0.0227
     33 C          63.0768   85.0087    9.1774 C.ar    1  UNL1       -0.0043
     34 C          63.7695   83.7211    9.5128 C.ar    1  UNL1       -0.0003
     35 C          63.6224   83.1247   10.8812 C.ar    1  UNL1       -0.0000
     36 C          62.7826   83.8156   11.9142 C.ar    1  UNL1       -0.0003
     37 C          62.0899   85.1031   11.5789 C.ar    1  UNL1       -0.0043
@<TRIPOS>BOND
     1    24    23    1
     2    24    25    1
     3    25    26    1
     4    26    27    1
     5    27    22    1
     6    22    21    1
     7    21     1    1
     8     1     3    1
     9     3     4   ar
    10     4     5   ar
    11     5     6    1
    12     5     7   ar
    13     7    11    1
    14    11    12    2
    15    11    13    2
    16    11    14    1
    17    14    16    1
    18    16    17   ar
    19    17    18   ar
    20    18    19   ar
    21    19    20   ar
    22     7     8   ar
    23     8     9   ar
    24     9    10    1
    25    27    32    1
    26    32    33   ar
    27    33    34   ar
    28    34    35   ar
    29    35    36   ar
    30    36    37   ar
    31    27    28    1
    32    28    29    1
    33    29    24    1
    34     9     3   ar
    35    37    32   ar
    36    20    16   ar
    37    23    30    1
    38    23    31    1
    39     1     2    1
    40    14    15    1
@<TRIPOS>MOLECULE
*****
 37 40 0 0 0
SMALL
GASTEIGER

@<TRIPOS>ATOM
      1 N          63.4909   89.1596   16.4538 N.pl3   1  UNL1       -0.3319
      2 H          63.4399   89.4193   17.4021 H       1  UNL1        0.1468
      3 C          63.4625   87.7097   16.0708 C.ar    1  UNL1        0.0577
      4 C          63.8844   87.2892   14.6941 C.ar    1  UNL1        0.0462
      5 C          63.8560   85.8392   14.3111 C.ar    1  UNL1        0.1602
      6 F          64.2779   85.4187   12.9343 F       1  UNL1       -0.2027
      7 C          63.4058   84.8096   15.3047 C.ar    1  UNL1        0.1534
      8 C          62.9839   85.2301   16.6815 C.ar    1  UNL1        0.0351
      9 C          63.0123   86.6801   17.0645 C.ar    1  UNL1        0.0722
     10 CL         62.5905   87.1006   18.4412 Cl      1  UNL1       -0.0809
     11 S          63.3774   83.3597   14.9217 S.O2    1  UNL1        0.0772
     12 O          64.8365   83.2442   15.2505 O.2     1  UNL1       -0.1498
     13 O          61.9185   83.4751   14.5929 O.2     1  UNL1       -0.1498
     14 N          63.3491   81.9096   14.5387 N.pl3   1  UNL1       -0.1936
     15 H          63.3653   81.2157   15.2368 H       1  UNL1        0.1758
     16 C          63.2961   81.5171   13.0920 C.ar    1  UNL1        0.1786
     17 N          62.6266   80.2964   12.5336 N.ar    1  UNL1       -0.2214
     18 C          62.8199   80.3010   11.0461 C.ar    1  UNL1        0.1079
     19 C          63.6088   81.5246   10.6851 C.ar    1  UNL1        0.0588
     20 S          63.9031   82.2761   11.9495 S.2     1  UNL1       -0.0497
     21 C          63.5969   90.2139   15.3921 C.3     1  UNL1        0.0874
     22 C          64.9456   90.6714   14.9214 C.3     1  UNL1        0.0252
     23 N          62.9787   91.5554    9.6118 N.3     1  UNL1       -0.3222
     24 C          63.6822   91.4791   10.9344 C.3     1  UNL1        0.0508
     25 C          63.1144   90.6372   12.0384 C.3     1  UNL1        0.0158
     26 C          63.8179   90.5609   13.3610 C.3     1  UNL1        0.0055
     27 C          65.0892   91.3264   13.5796 C.3     1  UNL1        0.0206
     28 C          65.6570   92.1682   12.4755 C.3     1  UNL1        0.0055
     29 C          64.9535   92.2445   11.1529 C.3     1  UNL1        0.0158
     30 H          62.1385   90.9777    9.6397 H       1  UNL1        0.1188
     31 H          63.5995   91.2172    8.8764 H       1  UNL1        0.1188
     32 C          66.3106   91.8644   14.2642 C.ar    1  UNL1       -0.0227
     33 C          67.6534   91.7434   13.6067 C.ar    1  UNL1       -0.0043
     34 C          68.8749   92.2814   14.2913 C.ar    1  UNL1       -0.0003
     35 C          68.7534   92.9405   15.6333 C.ar    1  UNL1       -0.0000
     36 C          67.4106   93.0616   16.2907 C.ar    1  UNL1       -0.0003
     37 C          66.1893   92.5235   15.6061 C.ar    1  UNL1       -0.0043
@<TRIPOS>BOND
     1    24    23    1
     2    24    25    1
     3    25    26    1
     4    26    27    1
     5    27    22    1
     6    22    21    1
     7    21     1    1
     8     1     3    1
     9     3     4   ar
    10     4     5   ar
    11     5     6    1
    12     5     7   ar
    13     7    11    1
    14    11    12    2
    15    11    13    2
    16    11    14    1
    17    14    16    1
    18    16    17   ar
    19    17    18   ar
    20    18    19   ar
    21    19    20   ar
    22     7     8   ar
    23     8     9   ar
    24     9    10    1
    25    27    32    1
    26    32    33   ar
    27    33    34   ar
    28    34    35   ar
    29    35    36   ar
    30    36    37   ar
    31    27    28    1
    32    28    29    1
    33    29    24    1
    34     9     3   ar
    35    37    32   ar
    36    20    16   ar
    37    23    30    1
    38    23    31    1
    39     1     2    1
    40    14    15    1
@<TRIPOS>MOLECULE
*****
 37 40 0 0 0
SMALL
GASTEIGER

@<TRIPOS>ATOM
      1 N          61.0271   88.8061   12.0378 N.pl3   1  UNL1       -0.3319
      2 H          60.2969   88.9636   12.6791 H       1  UNL1        0.1468
      3 C          62.1848   89.7575   11.9711 C.ar    1  UNL1        0.0577
      4 C          63.1438   89.8535   13.1205 C.ar    1  UNL1        0.0462
      5 C          64.3015   90.8048   13.0538 C.ar    1  UNL1        0.1602
      6 F          65.2606   90.9008   14.2032 F       1  UNL1       -0.2027
      7 C          64.5003   91.6603   11.8378 C.ar    1  UNL1        0.1534
      8 C          63.5413   91.5642   10.6883 C.ar    1  UNL1        0.0351
      9 C          62.3836   90.6129   10.7550 C.ar    1  UNL1        0.0722
     10 CL         61.4245   90.5169    9.6057 Cl      1  UNL1       -0.0809
     11 S          65.6581   92.6116   11.7711 S.O2    1  UNL1        0.0772
     12 O          65.9747   92.1294   10.3864 O.2     1  UNL1       -0.1498
     13 O          65.3415   93.0939   13.1557 O.2     1  UNL1       -0.1498
     14 N          66.8159   93.5630   11.7044 N.pl3   1  UNL1       -0.1936
     15 H          67.5623   93.4754   12.3403 H       1  UNL1        0.1758
     16 C          66.8363   94.6479   10.6687 C.ar    1  UNL1        0.1786
     17 N          67.8272   94.7808    9.5505 N.ar    1  UNL1       -0.2214
     18 C          67.4728   96.0053    8.7600 C.ar    1  UNL1        0.1079
     19 C          66.2628   96.6293    9.3897 C.ar    1  UNL1        0.0588
     20 S          65.8694   95.7903   10.5694 S.2     1  UNL1       -0.0497
     21 C          60.9818   87.6148   11.1275 C.3     1  UNL1        0.0874
     22 C          61.5223   86.2950   11.5919 C.3     1  UNL1        0.0252
     23 N          62.6524   84.6447    6.2215 N.3     1  UNL1       -0.3222
     24 C          62.5274   84.9020    7.6940 C.3     1  UNL1        0.0508
     25 C          61.5767   85.9487    8.1944 C.3     1  UNL1        0.0158
     26 C          61.4517   86.2059    9.6669 C.3     1  UNL1        0.0055
     27 C          62.2774   85.4164   10.6390 C.3     1  UNL1        0.0206
     28 C          63.2281   84.3697   10.1385 C.3     1  UNL1        0.0055
     29 C          63.3531   84.1125    8.6660 C.3     1  UNL1        0.0158
     30 H          62.0232   85.2661    5.7132 H       1  UNL1        0.1188
     31 H          62.4058   83.6750    6.0236 H       1  UNL1        0.1188
     32 C          62.8409   84.9320   11.9420 C.ar    1  UNL1       -0.0227
     33 C          63.4586   85.9065   12.9005 C.ar    1  UNL1       -0.0043
     34 C          64.0221   85.4221   14.2035 C.ar    1  UNL1       -0.0003
     35 C          63.9678   83.9632   14.5480 C.ar    1  UNL1       -0.0000
     36 C          63.3500   82.9887   13.5895 C.ar    1  UNL1       -0.0003
     37 C          62.7866   83.4731   12.2865 C.ar    1  UNL1       -0.0043
@<TRIPOS>BOND
     1    24    23    1
     2    24    25    1
     3    25    26    1
     4    26    27    1
     5    27    22    1
     6    22    21    1
     7    21     1    1
     8     1     3    1
     9     3     4   ar
    10     4     5   ar
    11     5     6    1
    12     5     7   ar
    13     7    11    1
    14    11    12    2
    15    11    13    2
    16    11    14    1
    17    14    16    1
    18    16    17   ar
    19    17    18   ar
    20    18    19   ar
    21    19    20   ar
    22     7     8   ar
    23     8     9   ar
    24     9    10    1
    25    27    32    1
    26    32    33   ar
    27    33    34   ar
    28    34    35   ar
    29    35    36   ar
    30    36    37   ar
    31    27    28    1
    32    28    29    1
    33    29    24    1
    34     9     3   ar
    35    37    32   ar
    36    20    16   ar
    37    23    30    1
    38    23    31    1
    39     1     2    1
    40    14    15    1
@<TRIPOS>MOLECULE
*****
 37 40 0 0 0
SMALL
GASTEIGER

@<TRIPOS>ATOM
      1 N          62.9777   90.0382   11.1183 N.pl3   1  UNL1       -0.3319
      2 H          62.5594   90.0955   10.2289 H       1  UNL1        0.1468
      3 C          63.0950   88.7112   11.8078 C.ar    1  UNL1        0.0577
      4 C          63.7761   88.6163   13.1408 C.ar    1  UNL1        0.0462
      5 C          63.8934   87.2894   13.8303 C.ar    1  UNL1        0.1602
      6 F          64.5746   87.1944   15.1635 F       1  UNL1       -0.2027
      7 C          63.3296   86.0573   13.1868 C.ar    1  UNL1        0.1534
      8 C          62.6485   86.1522   11.8537 C.ar    1  UNL1        0.0351
      9 C          62.5312   87.4792   11.1642 C.ar    1  UNL1        0.0722
     10 CL         61.8501   87.5741    9.8311 Cl      1  UNL1       -0.0809
     11 S          63.4469   84.7304   13.8763 S.O2    1  UNL1        0.0772
     12 O          64.9050   84.6780   13.5276 O.2     1  UNL1       -0.1498
     13 O          61.9890   84.7827   14.2250 O.2     1  UNL1       -0.1498
     14 N          63.5642   83.4034   14.5658 N.pl3   1  UNL1       -0.1936
     15 H          63.9227   83.3543   15.4814 H       1  UNL1        0.1758
     16 C          63.1354   82.1511   13.8602 C.ar    1  UNL1        0.1786
     17 N          62.4039   80.9969   14.4789 N.ar    1  UNL1       -0.2214
     18 C          62.1791   79.9656   13.4131 C.ar    1  UNL1        0.1079
     19 C          62.7716   80.4824   12.1357 C.ar    1  UNL1        0.0588
     20 S          63.3626   81.8332   12.4120 S.2     1  UNL1       -0.0497
     21 C          63.4977   91.2778   11.7837 C.3     1  UNL1        0.0874
     22 C          64.8619   91.7978   11.4397 C.3     1  UNL1        0.0252
     23 N          66.1469   92.6934   16.9523 N.3     1  UNL1       -0.3222
     24 C          65.9914   92.6298   15.4617 C.3     1  UNL1        0.0508
     25 C          64.9713   91.7143   14.8524 C.3     1  UNL1        0.0158
     26 C          64.8159   91.6507   13.3619 C.3     1  UNL1        0.0055
     27 C          65.6805   92.5025   12.4806 C.3     1  UNL1        0.0206
     28 C          66.7007   93.4179   13.0898 C.3     1  UNL1        0.0055
     29 C          66.8561   93.4816   14.5804 C.3     1  UNL1        0.0158
     30 H          65.4845   92.0537   17.3908 H       1  UNL1        0.1188
     31 H          65.9643   93.6444   17.2728 H       1  UNL1        0.1188
     32 C          66.2610   93.1096   11.2377 C.ar    1  UNL1       -0.0227
     33 C          65.7737   94.4443   10.7570 C.ar    1  UNL1       -0.0043
     34 C          66.3542   95.0514    9.5142 C.ar    1  UNL1       -0.0003
     35 C          67.4218   94.3237    8.7522 C.ar    1  UNL1       -0.0000
     36 C          67.9090   92.9890    9.2329 C.ar    1  UNL1       -0.0003
     37 C          67.3285   92.3820   10.4757 C.ar    1  UNL1       -0.0043
@<TRIPOS>BOND
     1    24    23    1
     2    24    25    1
     3    25    26    1
     4    26    27    1
     5    27    22    1
     6    22    21    1
     7    21     1    1
     8     1     3    1
     9     3     4   ar
    10     4     5   ar
    11     5     6    1
    12     5     7   ar
    13     7    11    1
    14    11    12    2
    15    11    13    2
    16    11    14    1
    17    14    16    1
    18    16    17   ar
    19    17    18   ar
    20    18    19   ar
    21    19    20   ar
    22     7     8   ar
    23     8     9   ar
    24     9    10    1
    25    27    32    1
    26    32    33   ar
    27    33    34   ar
    28    34    35   ar
    29    35    36   ar
    30    36    37   ar
    31    27    28    1
    32    28    29    1
    33    29    24    1
    34     9     3   ar
    35    37    32   ar
    36    20    16   ar
    37    23    30    1
    38    23    31    1
    39     1     2    1
    40    14    15    1
@<TRIPOS>MOLECULE
*****
 37 40 0 0 0
SMALL
GASTEIGER

@<TRIPOS>ATOM
      1 N          61.5216   86.8254   11.1831 N.pl3   1  UNL1       -0.3319
      2 H          60.5664   86.8901   10.9536 H       1  UNL1        0.1468
      3 C          62.2974   88.0641   11.5203 C.ar    1  UNL1        0.0577
      4 C          63.1922   88.0842   12.7240 C.ar    1  UNL1        0.0462
      5 C          63.9679   89.3229   13.0613 C.ar    1  UNL1        0.1602
      6 F          64.8628   89.3430   14.2650 F       1  UNL1       -0.2027
      7 C          63.8489   90.5416   12.1949 C.ar    1  UNL1        0.1534
      8 C          62.9541   90.5215   10.9911 C.ar    1  UNL1        0.0351
      9 C          62.1783   89.2828   10.6539 C.ar    1  UNL1        0.0722
     10 CL         61.2835   89.2627    9.4502 Cl      1  UNL1       -0.0809
     11 S          64.6247   91.7802   12.5321 S.O2    1  UNL1        0.0772
     12 O          64.0268   91.7802   13.9079 O.2     1  UNL1       -0.1498
     13 O          65.2225   91.7804   11.1565 O.2     1  UNL1       -0.1498
     14 N          65.4005   93.0190   12.8694 N.pl3   1  UNL1       -0.1936
     15 H          65.1162   93.8908   12.5110 H       1  UNL1        0.1758
     16 C          66.6094   92.9294   13.7529 C.ar    1  UNL1        0.1786
     17 N          67.9596   92.4150   13.3500 N.ar    1  UNL1       -0.2214
     18 C          68.8651   92.5061   14.5423 C.ar    1  UNL1        0.1079
     19 C          68.0746   93.0769   15.6822 C.ar    1  UNL1        0.0588
     20 S          66.6804   93.3385   15.1942 S.2     1  UNL1       -0.0497
     21 C          62.2011   85.4882   11.1956 C.3     1  UNL1        0.0874
     22 C          63.1023   85.1154   12.3352 C.3     1  UNL1        0.0252
     23 N          62.7408   79.4514   11.5413 N.3     1  UNL1       -0.3222
     24 C          62.8462   80.8770   11.9956 C.3     1  UNL1        0.0508
     25 C          62.8512   81.9872   10.9870 C.3     1  UNL1        0.0158
     26 C          62.9565   83.4129   11.4414 C.3     1  UNL1        0.0055
     27 C          63.0570   83.7283   12.9044 C.3     1  UNL1        0.0206
     28 C          63.0521   82.6181   13.9130 C.3     1  UNL1        0.0055
     29 C          62.9467   81.1924   13.4586 C.3     1  UNL1        0.0158
     30 H          62.6816   79.4224   10.5234 H       1  UNL1        0.1188
     31 H          61.9044   79.0275   11.9427 H       1  UNL1        0.1188
     32 C          63.1732   84.5254   14.1697 C.ar    1  UNL1       -0.0227
     33 C          64.3558   85.4228   14.3849 C.ar    1  UNL1       -0.0043
     34 C          64.4719   86.2199   15.6503 C.ar    1  UNL1       -0.0003
     35 C          63.4055   86.1197   16.7003 C.ar    1  UNL1       -0.0000
     36 C          62.2229   85.2224   16.4852 C.ar    1  UNL1       -0.0003
     37 C          62.1068   84.4253   15.2198 C.ar    1  UNL1       -0.0043
@<TRIPOS>BOND
     1    24    23    1
     2    24    25    1
     3    25    26    1
     4    26    27    1
     5    27    22    1
     6    22    21    1
     7    21     1    1
     8     1     3    1
     9     3     4   ar
    10     4     5   ar
    11     5     6    1
    12     5     7   ar
    13     7    11    1
    14    11    12    2
    15    11    13    2
    16    11    14    1
    17    14    16    1
    18    16    17   ar
    19    17    18   ar
    20    18    19   ar
    21    19    20   ar
    22     7     8   ar
    23     8     9   ar
    24     9    10    1
    25    27    32    1
    26    32    33   ar
    27    33    34   ar
    28    34    35   ar
    29    35    36   ar
    30    36    37   ar
    31    27    28    1
    32    28    29    1
    33    29    24    1
    34     9     3   ar
    35    37    32   ar
    36    20    16   ar
    37    23    30    1
    38    23    31    1
    39     1     2    1
    40    14    15    1
@<TRIPOS>MOLECULE
*****
 37 40 0 0 0
SMALL
GASTEIGER

@<TRIPOS>ATOM
      1 N          60.7495   88.9155   11.9681 N.pl3   1  UNL1       -0.3319
      2 H          59.8774   89.2740   12.2511 H       1  UNL1        0.1468
      3 C          61.9525   89.8107   11.9325 C.ar    1  UNL1        0.0577
      4 C          62.8372   89.9266   13.1382 C.ar    1  UNL1        0.0462
      5 C          64.0402   90.8218   13.1026 C.ar    1  UNL1        0.1602
      6 F          64.9249   90.9376   14.3084 F       1  UNL1       -0.2027
      7 C          64.3586   91.6013   11.8612 C.ar    1  UNL1        0.1534
      8 C          63.4738   91.4854   10.6554 C.ar    1  UNL1        0.0351
      9 C          62.2708   90.5902   10.6910 C.ar    1  UNL1        0.0722
     10 CL         61.3861   90.4744    9.4853 Cl      1  UNL1       -0.0809
     11 S          65.5615   92.4965   11.8256 S.O2    1  UNL1        0.0772
     12 O          65.2870   92.9218   13.2377 O.2     1  UNL1       -0.1498
     13 O          65.8361   92.0713   10.4136 O.2     1  UNL1       -0.1498
     14 N          66.7646   93.3918   11.7900 N.pl3   1  UNL1       -0.1936
     15 H          67.4892   93.2690   12.4450 H       1  UNL1        0.1758
     16 C          66.8635   94.4742   10.7562 C.ar    1  UNL1        0.1786
     17 N          67.8139   94.5011    9.5960 N.ar    1  UNL1       -0.2214
     18 C          67.5672   95.7632    8.8239 C.ar    1  UNL1        0.1079
     19 C          66.4644   96.5164    9.5068 C.ar    1  UNL1        0.0588
     20 S          66.0295   95.7197   10.7011 S.2     1  UNL1       -0.0497
     21 C          60.8753   87.4741   11.5727 C.3     1  UNL1        0.0874
     22 C          62.0435   87.0217   10.7478 C.3     1  UNL1        0.0252
     23 N          64.6250   83.2142   14.1655 N.3     1  UNL1       -0.3222
     24 C          63.9584   84.0278   13.0960 C.3     1  UNL1        0.0508
     25 C          63.5295   85.4362   13.3830 C.3     1  UNL1        0.0158
     26 C          62.8629   86.2498   12.3135 C.3     1  UNL1        0.0055
     27 C          62.6252   85.6550   10.9572 C.3     1  UNL1        0.0206
     28 C          63.0542   84.2466   10.6703 C.3     1  UNL1        0.0055
     29 C          63.7208   83.4330   11.7397 C.3     1  UNL1        0.0158
     30 H          64.7053   83.7713   15.0161 H       1  UNL1        0.1188
     31 H          65.5551   82.9369   13.8516 H       1  UNL1        0.1188
     32 C          62.1855   85.5348    9.5281 C.ar    1  UNL1       -0.0227
     33 C          60.8254   86.0170    9.1188 C.ar    1  UNL1       -0.0043
     34 C          60.3857   85.8968    7.6897 C.ar    1  UNL1       -0.0003
     35 C          61.3063   85.2945    6.6700 C.ar    1  UNL1       -0.0000
     36 C          62.6664   84.8124    7.0793 C.ar    1  UNL1       -0.0003
     37 C          63.1060   84.9326    8.5083 C.ar    1  UNL1       -0.0043
@<TRIPOS>BOND
     1    24    23    1
     2    24    25    1
     3    25    26    1
     4    26    27    1
     5    27    22    1
     6    22    21    1
     7    21     1    1
     8     1     3    1
     9     3     4   ar
    10     4     5   ar
    11     5     6    1
    12     5     7   ar
    13     7    11    1
    14    11    12    2
    15    11    13    2
    16    11    14    1
    17    14    16    1
    18    16    17   ar
    19    17    18   ar
    20    18    19   ar
    21    19    20   ar
    22     7     8   ar
    23     8     9   ar
    24     9    10    1
    25    27    32    1
    26    32    33   ar
    27    33    34   ar
    28    34    35   ar
    29    35    36   ar
    30    36    37   ar
    31    27    28    1
    32    28    29    1
    33    29    24    1
    34     9     3   ar
    35    37    32   ar
    36    20    16   ar
    37    23    30    1
    38    23    31    1
    39     1     2    1
    40    14    15    1
@<TRIPOS>MOLECULE
*****
 37 40 0 0 0
SMALL
GASTEIGER

@<TRIPOS>ATOM
      1 N          61.4264   88.6863   12.2630 N.pl3   1  UNL1       -0.3319
      2 H          60.7777   88.7332   13.0020 H       1  UNL1        0.1468
      3 C          62.5128   89.7145   12.1523 C.ar    1  UNL1        0.0577
      4 C          62.5761   90.6125   10.9525 C.ar    1  UNL1        0.0462
      5 C          63.6626   91.6408   10.8418 C.ar    1  UNL1        0.1602
      6 F          63.7259   92.5388    9.6419 F       1  UNL1       -0.2027
      7 C          64.6857   91.7712   11.9309 C.ar    1  UNL1        0.1534
      8 C          64.6223   90.8731   13.1308 C.ar    1  UNL1        0.0351
      9 C          63.5359   89.8449   13.2415 C.ar    1  UNL1        0.0722
     10 CL         63.4726   88.9469   14.4413 Cl      1  UNL1       -0.0809
     11 S          65.7721   92.7994   11.8202 S.O2    1  UNL1        0.0772
     12 O          66.0841   92.3206   10.4333 O.2     1  UNL1       -0.1498
     13 O          65.4602   93.2783   13.2071 O.2     1  UNL1       -0.1498
     14 N          66.8586   93.8278   11.7095 N.pl3   1  UNL1       -0.1936
     15 H          67.6090   93.8216   12.3468 H       1  UNL1        0.1758
     16 C          66.8016   94.8654   10.6279 C.ar    1  UNL1        0.1786
     17 N          65.9677   96.1122   10.6453 N.ar    1  UNL1       -0.2214
     18 C          66.2191   96.8559    9.3671 C.ar    1  UNL1        0.1079
     19 C          67.2083   96.0688    8.5597 C.ar    1  UNL1        0.0588
     20 S          67.5682   94.8386    9.3390 S.2     1  UNL1       -0.0497
     21 C          61.3283   87.5865   11.2477 C.3     1  UNL1        0.0874
     22 C          61.8140   86.2082   11.5857 C.3     1  UNL1        0.0252
     23 N          62.2986   84.7546    6.0635 N.3     1  UNL1       -0.3222
     24 C          62.3425   84.9525    7.5498 C.3     1  UNL1        0.0508
     25 C          61.4888   86.0056    8.1917 C.3     1  UNL1        0.0158
     26 C          61.5327   86.2035    9.6780 C.3     1  UNL1        0.0055
     27 C          62.4304   85.3484   10.5223 C.3     1  UNL1        0.0206
     28 C          63.2841   84.2953    9.8803 C.3     1  UNL1        0.0055
     29 C          63.2402   84.0974    8.3941 C.3     1  UNL1        0.0158
     30 H          61.6403   85.4161    5.6518 H       1  UNL1        0.1188
     31 H          61.9982   83.8022    5.8561 H       1  UNL1        0.1188
     32 C          63.1141   84.7918   11.7359 C.ar    1  UNL1       -0.0227
     33 C          63.2905   85.6469   12.9556 C.ar    1  UNL1       -0.0043
     34 C          63.9742   85.0903   14.1692 C.ar    1  UNL1       -0.0003
     35 C          64.4813   83.6787   14.1631 C.ar    1  UNL1       -0.0000
     36 C          64.3049   82.8236   12.9434 C.ar    1  UNL1       -0.0003
     37 C          63.6213   83.3802   11.7298 C.ar    1  UNL1       -0.0043
@<TRIPOS>BOND
     1    24    23    1
     2    24    25    1
     3    25    26    1
     4    26    27    1
     5    27    22    1
     6    22    21    1
     7    21     1    1
     8     1     3    1
     9     3     4   ar
    10     4     5   ar
    11     5     6    1
    12     5     7   ar
    13     7    11    1
    14    11    12    2
    15    11    13    2
    16    11    14    1
    17    14    16    1
    18    16    17   ar
    19    17    18   ar
    20    18    19   ar
    21    19    20   ar
    22     7     8   ar
    23     8     9   ar
    24     9    10    1
    25    27    32    1
    26    32    33   ar
    27    33    34   ar
    28    34    35   ar
    29    35    36   ar
    30    36    37   ar
    31    27    28    1
    32    28    29    1
    33    29    24    1
    34     9     3   ar
    35    37    32   ar
    36    20    16   ar
    37    23    30    1
    38    23    31    1
    39     1     2    1
    40    14    15    1
@<TRIPOS>MOLECULE
*****
 37 40 0 0 0
SMALL
GASTEIGER

@<TRIPOS>ATOM
      1 N          60.3901   88.6754   11.7052 N.pl3   1  UNL1       -0.3319
      2 H          59.5394   88.9335   12.1281 H       1  UNL1        0.1468
      3 C          61.5968   89.5544   11.8503 C.ar    1  UNL1        0.0577
      4 C          62.3398   89.5993   13.1525 C.ar    1  UNL1        0.0462
      5 C          63.5465   90.4784   13.2976 C.ar    1  UNL1        0.1602
      6 F          64.2896   90.5233   14.5999 F       1  UNL1       -0.2027
      7 C          64.0102   91.3126   12.1405 C.ar    1  UNL1        0.1534
      8 C          63.2672   91.2677   10.8381 C.ar    1  UNL1        0.0351
      9 C          62.0605   90.3886   10.6931 C.ar    1  UNL1        0.0722
     10 CL         61.3175   90.3437    9.3908 Cl      1  UNL1       -0.0809
     11 S          65.2169   92.1917   12.2855 S.O2    1  UNL1        0.0772
     12 O          65.5565   91.9638   10.8422 O.2     1  UNL1       -0.1498
     13 O          64.8774   92.4195   13.7287 O.2     1  UNL1       -0.1498
     14 N          66.4237   93.0708   12.4306 N.pl3   1  UNL1       -0.1936
     15 H          66.6825   93.6762   11.6986 H       1  UNL1        0.1758
     16 C          67.2359   93.0274   13.6908 C.ar    1  UNL1        0.1786
     17 N          67.4049   94.1512   14.6699 N.ar    1  UNL1       -0.2214
     18 C          68.2952   93.6711   15.7776 C.ar    1  UNL1        0.1079
     19 C          68.6766   92.2506   15.4830 C.ar    1  UNL1        0.0588
     20 S          68.0218   91.8529   14.1933 S.2     1  UNL1       -0.0497
     21 C          60.4796   87.4030   10.9159 C.3     1  UNL1        0.0874
     22 C          61.3183   86.2657   11.4189 C.3     1  UNL1        0.0252
     23 N          62.5428   84.7128    6.0402 N.3     1  UNL1       -0.3222
     24 C          62.4102   84.9625    7.5133 C.3     1  UNL1        0.0508
     25 C          61.3670   85.9126    8.0220 C.3     1  UNL1        0.0158
     26 C          61.2344   86.1623    9.4951 C.3     1  UNL1        0.0055
     27 C          62.1450   85.4618   10.4595 C.3     1  UNL1        0.0206
     28 C          63.1882   84.5117    9.9508 C.3     1  UNL1        0.0055
     29 C          63.3208   84.2620    8.4777 C.3     1  UNL1        0.0158
     30 H          61.8496   85.2671    5.5376 H       1  UNL1        0.1188
     31 H          62.3905   83.7227    5.8481 H       1  UNL1        0.1188
     32 C          62.7686   85.0405   11.7571 C.ar    1  UNL1       -0.0227
     33 C          62.8687   83.5844   12.1032 C.ar    1  UNL1       -0.0043
     34 C          63.4923   83.1631   13.4008 C.ar    1  UNL1       -0.0003
     35 C          64.0156   84.1980   14.3522 C.ar    1  UNL1       -0.0000
     36 C          63.9154   85.6540   14.0062 C.ar    1  UNL1       -0.0003
     37 C          63.2919   86.0753   12.7086 C.ar    1  UNL1       -0.0043
@<TRIPOS>BOND
     1    24    23    1
     2    24    25    1
     3    25    26    1
     4    26    27    1
     5    27    22    1
     6    22    21    1
     7    21     1    1
     8     1     3    1
     9     3     4   ar
    10     4     5   ar
    11     5     6    1
    12     5     7   ar
    13     7    11    1
    14    11    12    2
    15    11    13    2
    16    11    14    1
    17    14    16    1
    18    16    17   ar
    19    17    18   ar
    20    18    19   ar
    21    19    20   ar
    22     7     8   ar
    23     8     9   ar
    24     9    10    1
    25    27    32    1
    26    32    33   ar
    27    33    34   ar
    28    34    35   ar
    29    35    36   ar
    30    36    37   ar
    31    27    28    1
    32    28    29    1
    33    29    24    1
    34     9     3   ar
    35    37    32   ar
    36    20    16   ar
    37    23    30    1
    38    23    31    1
    39     1     2    1
    40    14    15    1
