@<TRIPOS>MOLECULE
*****
 33 36 0 0 0
SMALL
GASTEIGER

@<TRIPOS>ATOM
      1 C          63.0859   88.4932   13.0125 C.3     1  UNL1        0.1244
      2 N          63.9886   88.4186   14.2081 N.3     1  UNL1       -0.2823
      3 C          64.6655   87.2155   14.7953 C.3     1  UNL1        0.1560
      4 C          64.6067   85.7901   14.3319 C.2     1  UNL1        0.2455
      5 O          65.4034   84.8095   15.1404 O.2     1  UNL1       -0.2730
      6 N          63.8567   85.2157   13.1668 N.am    1  UNL1       -0.2560
      7 C          64.0025   83.7366   12.9643 C.3     1  UNL1        0.1200
      8 C          62.9801   85.9247   12.1774 C.ar    1  UNL1        0.0515
      9 C          62.4175   84.9734   11.1632 C.ar    1  UNL1        0.0146
     10 C          61.5120   85.4808   10.0804 C.ar    1  UNL1        0.0013
     11 C          61.1690   86.9394   10.0118 C.ar    1  UNL1       -0.0002
     12 C          61.7315   87.8907   11.0259 C.ar    1  UNL1       -0.0014
     13 C          62.6371   87.3833   12.1087 C.ar    1  UNL1        0.0118
     14 H          63.4306   88.7969   14.9736 H       1  UNL1        0.1243
     15 C          62.2093   89.2023   12.0231 C.ar    1  UNL1       -0.0019
     16 C          60.7804   89.5020   12.3669 C.ar    1  UNL1       -0.0026
     17 C          59.9038   90.2110   11.3775 C.ar    1  UNL1       -0.0003
     18 C          60.4561   90.6204   10.0444 C.ar    1  UNL1       -0.0000
     19 C          61.8852   90.3207    9.7006 C.ar    1  UNL1       -0.0003
     20 C          62.7617   89.6116   10.6900 C.ar    1  UNL1       -0.0026
     21 C          63.1446   89.9186   13.4759 C.3     1  UNL1        0.2256
     22 C          62.8961   90.2493   14.9177 C.2     1  UNL1        0.0920
     23 O          63.6713   91.3501   15.5792 O.co2   1  UNL1       -0.5455
     24 O          61.8724   89.4793   15.6981 O.co2   1  UNL1       -0.5455
     25 O          63.4519   91.0133   12.4975 O.3     1  UNL1       -0.4426
     26 C          68.0977   91.9134   14.6439 C.3     1  UNL1        0.0523
     27 C          67.1678   92.0108   13.4709 C.ar    1  UNL1        0.0652
     28 C          67.6309   92.6556   12.1982 C.ar    1  UNL1        0.0297
     29 C          66.7010   92.7529   11.0252 C.ar    1  UNL1        0.0652
     30 C          67.1640   93.3977    9.7525 C.3     1  UNL1        0.0523
     31 N          65.3080   92.2055   11.1250 N.ar    1  UNL1       -0.1986
     32 C          64.8450   91.5607   12.3978 C.ar    1  UNL1        0.3196
     33 N          65.7749   91.4634   13.5707 N.ar    1  UNL1       -0.1986
@<TRIPOS>UNITY_ATOM_ATTR
23 1
charge -1
@<TRIPOS>BOND
     1    26    27    1
     2    27    28   ar
     3    28    29   ar
     4    29    30    1
     5    29    31   ar
     6    31    32   ar
     7    32    25    1
     8    21    25    1
     9    21    22    1
    10    22    23   ar
    11    22    24   ar
    12    21     1    1
    13     1    15    1
    14    15    16   ar
    15    16    17   ar
    16    17    18   ar
    17    18    19   ar
    18    19    20   ar
    19     1     2    1
    20     2     3    1
    21     3     4    1
    22     4     5    2
    23     4     6   am
    24     6     7    1
    25     6     8    1
    26     8     9   ar
    27     9    10   ar
    28    10    11   ar
    29    11    12   ar
    30    12    13   ar
    31    32    33   ar
    32    33    27   ar
    33    13     1    1
    34    20    15   ar
    35    13     8   ar
    36     2    14    1
@<TRIPOS>MOLECULE
*****
 33 36 0 0 0
SMALL
GASTEIGER

@<TRIPOS>ATOM
      1 C          61.2210   94.1434   -0.9592 C.3     1  UNL1        0.1244
      2 N          59.7681   94.0372   -0.6019 N.3     1  UNL1       -0.2823
      3 C          59.1513   93.5046    0.6575 C.3     1  UNL1        0.1560
      4 C          59.8350   92.9468    1.8705 C.2     1  UNL1        0.2455
      5 O          58.9296   92.4919    2.9765 O.2     1  UNL1       -0.2730
      6 N          61.3045   92.7838    2.1237 N.am    1  UNL1       -0.2560
      7 C          61.6742   92.1874    3.4494 C.3     1  UNL1        0.1200
      8 C          62.4532   93.1383    1.2265 C.ar    1  UNL1        0.0515
      9 C          63.7697   92.8105    1.8662 C.ar    1  UNL1        0.0146
     10 C          65.0490   93.0879    1.1339 C.ar    1  UNL1        0.0013
     11 C          65.0119   93.6929   -0.2381 C.ar    1  UNL1       -0.0002
     12 C          63.6954   94.0207   -0.8779 C.ar    1  UNL1       -0.0014
     13 C          62.4160   93.7434   -0.1456 C.ar    1  UNL1        0.0118
     14 H          59.3631   93.4681   -1.3453 H       1  UNL1        0.1243
     15 C          62.3697   94.4979   -1.8565 C.ar    1  UNL1       -0.0019
     16 C          62.9045   93.4856   -2.8256 C.ar    1  UNL1       -0.0026
     17 C          64.0531   93.8401   -3.7228 C.ar    1  UNL1       -0.0003
     18 C          64.6669   95.2068   -3.6510 C.ar    1  UNL1       -0.0000
     19 C          64.1320   96.2192   -2.6818 C.ar    1  UNL1       -0.0003
     20 C          62.9834   95.8646   -1.7846 C.ar    1  UNL1       -0.0026
     21 C          60.5373   94.7012   -2.1723 C.3     1  UNL1        0.2256
     22 C          60.0689   96.1261   -2.1804 C.2     1  UNL1        0.0920
     23 O          59.7602   96.8216   -0.8877 O.co2   1  UNL1       -0.5455
     24 O          59.9093   96.8557   -3.4812 O.co2   1  UNL1       -0.5455
     25 O          60.3220   93.8340   -3.3771 O.3     1  UNL1       -0.4426
     26 C          55.8370   91.3752   -2.4609 C.3     1  UNL1        0.0523
     27 C          56.6870   92.2414   -3.3424 C.ar    1  UNL1        0.0652
     28 C          56.1447   92.7445   -4.6473 C.ar    1  UNL1        0.0297
     29 C          56.9947   93.6107   -5.5288 C.ar    1  UNL1        0.0652
     30 C          56.4524   94.1138   -6.8338 C.3     1  UNL1        0.0523
     31 N          58.3871   93.9739   -5.1054 N.ar    1  UNL1       -0.1986
     32 C          58.9295   93.4708   -3.8005 C.ar    1  UNL1        0.3196
     33 N          58.0794   92.6046   -2.9190 N.ar    1  UNL1       -0.1986
@<TRIPOS>UNITY_ATOM_ATTR
23 1
charge -1
@<TRIPOS>BOND
     1    26    27    1
     2    27    28   ar
     3    28    29   ar
     4    29    30    1
     5    29    31   ar
     6    31    32   ar
     7    32    25    1
     8    21    25    1
     9    21    22    1
    10    22    23   ar
    11    22    24   ar
    12    21     1    1
    13     1    15    1
    14    15    16   ar
    15    16    17   ar
    16    17    18   ar
    17    18    19   ar
    18    19    20   ar
    19     1     2    1
    20     2     3    1
    21     3     4    1
    22     4     5    2
    23     4     6   am
    24     6     7    1
    25     6     8    1
    26     8     9   ar
    27     9    10   ar
    28    10    11   ar
    29    11    12   ar
    30    12    13   ar
    31    32    33   ar
    32    33    27   ar
    33    13     1    1
    34    20    15   ar
    35    13     8   ar
    36     2    14    1
@<TRIPOS>MOLECULE
*****
 33 36 0 0 0
SMALL
GASTEIGER

@<TRIPOS>ATOM
      1 C          59.9423   94.3249   -2.9672 C.3     1  UNL1        0.1244
      2 N          61.3788   94.6798   -2.7212 N.3     1  UNL1       -0.2823
      3 C          62.4453   95.0097   -3.7231 C.3     1  UNL1        0.1560
      4 C          62.3388   95.0661   -5.2183 C.2     1  UNL1        0.2455
      5 O          63.5982   95.4302   -5.9472 O.2     1  UNL1       -0.2730
      6 N          61.1394   94.8066   -6.0808 N.am    1  UNL1       -0.2560
      7 C          61.3580   94.9455   -7.5583 C.3     1  UNL1        0.1200
      8 C          59.7502   94.4266   -5.6614 C.ar    1  UNL1        0.0515
      9 C          58.8459   94.2609   -6.8465 C.ar    1  UNL1        0.0146
     10 C          57.4088   93.8808   -6.6460 C.ar    1  UNL1        0.0013
     11 C          56.8760   93.6664   -5.2603 C.ar    1  UNL1       -0.0002
     12 C          57.7804   93.8321   -4.0751 C.ar    1  UNL1       -0.0014
     13 C          59.2175   94.2122   -4.2756 C.ar    1  UNL1        0.0118
     14 H          61.7529   93.8856   -2.2019 H       1  UNL1        0.1243
     15 C          58.5531   93.9449   -2.5477 C.ar    1  UNL1       -0.0019
     16 C          58.1950   92.5004   -2.3602 C.ar    1  UNL1       -0.0026
     17 C          56.8060   92.1203   -1.9407 C.ar    1  UNL1       -0.0003
     18 C          55.7750   93.1847   -1.7086 C.ar    1  UNL1       -0.0000
     19 C          56.1330   94.6294   -1.8960 C.ar    1  UNL1       -0.0003
     20 C          57.5221   95.0094   -2.3156 C.ar    1  UNL1       -0.0026
     21 C          60.0488   94.2685   -1.4720 C.3     1  UNL1        0.2256
     22 C          59.7821   95.4973   -0.6542 C.2     1  UNL1        0.0920
     23 O          60.0911   96.8536   -1.2157 O.co2   1  UNL1       -0.5455
     24 O          59.2064   95.3700    0.7249 O.co2   1  UNL1       -0.5455
     25 O          60.4219   92.9832   -0.7947 O.3     1  UNL1       -0.4426
     26 C          65.2771   94.5135    0.2475 C.3     1  UNL1        0.0523
     27 C          64.0752   93.6834    0.5887 C.ar    1  UNL1        0.0652
     28 C          64.0989   92.7884    1.7922 C.ar    1  UNL1        0.0297
     29 C          62.8970   91.9583    2.1334 C.ar    1  UNL1        0.0652
     30 C          62.9208   91.0632    3.3369 C.3     1  UNL1        0.0523
     31 N          61.6714   92.0232    1.2711 N.ar    1  UNL1       -0.1986
     32 C          61.6477   92.9183    0.0676 C.ar    1  UNL1        0.3196
     33 N          62.8496   93.7484   -0.2736 N.ar    1  UNL1       -0.1986
@<TRIPOS>UNITY_ATOM_ATTR
23 1
charge -1
@<TRIPOS>BOND
     1    26    27    1
     2    27    28   ar
     3    28    29   ar
     4    29    30    1
     5    29    31   ar
     6    31    32   ar
     7    32    25    1
     8    21    25    1
     9    21    22    1
    10    22    23   ar
    11    22    24   ar
    12    21     1    1
    13     1    15    1
    14    15    16   ar
    15    16    17   ar
    16    17    18   ar
    17    18    19   ar
    18    19    20   ar
    19     1     2    1
    20     2     3    1
    21     3     4    1
    22     4     5    2
    23     4     6   am
    24     6     7    1
    25     6     8    1
    26     8     9   ar
    27     9    10   ar
    28    10    11   ar
    29    11    12   ar
    30    12    13   ar
    31    32    33   ar
    32    33    27   ar
    33    13     1    1
    34    20    15   ar
    35    13     8   ar
    36     2    14    1
@<TRIPOS>MOLECULE
*****
 33 36 0 0 0
SMALL
GASTEIGER

@<TRIPOS>ATOM
      1 C          59.9258   94.3735   -1.8347 C.3     1  UNL1        0.1244
      2 N          59.0320   94.0069   -0.6872 N.3     1  UNL1       -0.2823
      3 C          57.6369   93.4573   -0.7270 C.3     1  UNL1        0.1560
      4 C          56.7909   93.1387   -1.9241 C.2     1  UNL1        0.2455
      5 O          55.4240   92.5962   -1.6293 O.2     1  UNL1       -0.2730
      6 N          57.1313   93.2910   -3.3770 N.am    1  UNL1       -0.2560
      7 C          56.0597   92.8805   -4.3430 C.3     1  UNL1        0.1200
      8 C          58.4016   93.7994   -3.9917 C.ar    1  UNL1        0.0515
      9 C          58.3279   93.7890   -5.4899 C.ar    1  UNL1        0.0146
     10 C          59.4979   94.2603   -6.3016 C.ar    1  UNL1        0.0013
     11 C          60.7416   94.7421   -5.6152 C.ar    1  UNL1       -0.0002
     12 C          60.8153   94.7525   -4.1170 C.ar    1  UNL1       -0.0014
     13 C          59.6453   94.2812   -3.3053 C.ar    1  UNL1        0.0118
     14 H          58.9534   94.8643   -0.1404 H       1  UNL1        0.1243
     15 C          61.1962   94.8819   -2.4494 C.ar    1  UNL1       -0.0019
     16 C          62.2992   93.9248   -2.7916 C.ar    1  UNL1       -0.0026
     17 C          63.5695   94.4332   -3.4063 C.ar    1  UNL1       -0.0003
     18 C          63.7368   95.8987   -3.6787 C.ar    1  UNL1       -0.0000
     19 C          62.6337   96.8559   -3.3365 C.ar    1  UNL1       -0.0003
     20 C          61.3634   96.3474   -2.7218 C.ar    1  UNL1       -0.0026
     21 C          60.7717   94.6921   -0.6376 C.3     1  UNL1        0.2256
     22 C          60.5283   95.9522    0.1388 C.2     1  UNL1        0.0920
     23 O          59.2290   96.6866   -0.0116 O.co2   1  UNL1       -0.5455
     24 O          61.5841   96.4780    1.0655 O.co2   1  UNL1       -0.5455
     25 O          61.8610   93.7506   -0.2170 O.3     1  UNL1       -0.4426
     26 C          59.2433   92.6595    4.1371 C.3     1  UNL1        0.0523
     27 C          60.4622   92.4951    3.2784 C.ar    1  UNL1        0.0652
     28 C          61.5912   91.6209    3.7380 C.ar    1  UNL1        0.0297
     29 C          62.8100   91.4566    2.8793 C.ar    1  UNL1        0.0652
     30 C          63.9390   90.5823    3.3390 C.3     1  UNL1        0.0523
     31 N          62.9000   92.1664    1.5611 N.ar    1  UNL1       -0.1986
     32 C          61.7710   93.0407    1.1014 C.ar    1  UNL1        0.3196
     33 N          60.5522   93.2050    1.9601 N.ar    1  UNL1       -0.1986
@<TRIPOS>UNITY_ATOM_ATTR
23 1
charge -1
@<TRIPOS>BOND
     1    26    27    1
     2    27    28   ar
     3    28    29   ar
     4    29    30    1
     5    29    31   ar
     6    31    32   ar
     7    32    25    1
     8    21    25    1
     9    21    22    1
    10    22    23   ar
    11    22    24   ar
    12    21     1    1
    13     1    15    1
    14    15    16   ar
    15    16    17   ar
    16    17    18   ar
    17    18    19   ar
    18    19    20   ar
    19     1     2    1
    20     2     3    1
    21     3     4    1
    22     4     5    2
    23     4     6   am
    24     6     7    1
    25     6     8    1
    26     8     9   ar
    27     9    10   ar
    28    10    11   ar
    29    11    12   ar
    30    12    13   ar
    31    32    33   ar
    32    33    27   ar
    33    13     1    1
    34    20    15   ar
    35    13     8   ar
    36     2    14    1
@<TRIPOS>MOLECULE
*****
 33 36 0 0 0
SMALL
GASTEIGER

@<TRIPOS>ATOM
      1 C          63.6654   90.5095   12.4610 C.3     1  UNL1        0.1244
      2 N          63.2413   90.9146   11.0804 N.3     1  UNL1       -0.2823
      3 C          63.8081   91.9944   10.2071 C.3     1  UNL1        0.1560
      4 C          64.9390   92.9359   10.4986 C.2     1  UNL1        0.2455
      5 O          65.2703   93.9123    9.4092 O.2     1  UNL1       -0.2730
      6 N          65.7823   93.0298   11.7355 N.am    1  UNL1       -0.2560
      7 C          66.8455   94.0879   11.7194 C.3     1  UNL1        0.1200
      8 C          65.7032   92.2058   12.9863 C.ar    1  UNL1        0.0515
      9 C          66.7371   92.6284   13.9874 C.ar    1  UNL1        0.0146
     10 C          66.8290   91.9294   15.3114 C.ar    1  UNL1        0.0013
     11 C          65.8869   90.8077   15.6342 C.ar    1  UNL1       -0.0002
     12 C          64.8529   90.3851   14.6332 C.ar    1  UNL1       -0.0014
     13 C          64.7610   91.0841   13.3092 C.ar    1  UNL1        0.0118
     14 H          62.2547   91.1552   11.1764 H       1  UNL1        0.1243
     15 C          63.5862   89.6853   13.7119 C.ar    1  UNL1       -0.0019
     16 C          64.2466   88.3397   13.7665 C.ar    1  UNL1       -0.0026
     17 C          64.1674   87.5156   15.0172 C.ar    1  UNL1       -0.0003
     18 C          63.4278   88.0371   16.2134 C.ar    1  UNL1       -0.0000
     19 C          62.7673   89.3829   16.1589 C.ar    1  UNL1       -0.0003
     20 C          62.8466   90.2069   14.9080 C.ar    1  UNL1       -0.0026
     21 C          62.5345   89.5681   12.1694 C.3     1  UNL1        0.2256
     22 C          61.1200   90.0669   12.1868 C.2     1  UNL1        0.0920
     23 O          60.1400   89.5086   13.1757 O.co2   1  UNL1       -0.5455
     24 O          60.6856   91.1240   11.2154 O.co2   1  UNL1       -0.5455
     25 O          62.8182   88.1280   11.8606 O.3     1  UNL1       -0.4426
     26 C          63.0223   84.4893    8.1567 C.3     1  UNL1        0.0523
     27 C          62.3494   85.6803    8.7720 C.ar    1  UNL1        0.0652
     28 C          61.1055   86.2431    8.1505 C.ar    1  UNL1        0.0297
     29 C          60.4326   87.4342    8.7658 C.ar    1  UNL1        0.0652
     30 C          59.1887   87.9970    8.1444 C.3     1  UNL1        0.0523
     31 N          61.0035   88.0624   10.0024 N.ar    1  UNL1       -0.1986
     32 C          62.2473   87.4996   10.6239 C.ar    1  UNL1        0.3196
     33 N          62.9202   86.3086   10.0086 N.ar    1  UNL1       -0.1986
@<TRIPOS>UNITY_ATOM_ATTR
23 1
charge -1
@<TRIPOS>BOND
     1    26    27    1
     2    27    28   ar
     3    28    29   ar
     4    29    30    1
     5    29    31   ar
     6    31    32   ar
     7    32    25    1
     8    21    25    1
     9    21    22    1
    10    22    23   ar
    11    22    24   ar
    12    21     1    1
    13     1    15    1
    14    15    16   ar
    15    16    17   ar
    16    17    18   ar
    17    18    19   ar
    18    19    20   ar
    19     1     2    1
    20     2     3    1
    21     3     4    1
    22     4     5    2
    23     4     6   am
    24     6     7    1
    25     6     8    1
    26     8     9   ar
    27     9    10   ar
    28    10    11   ar
    29    11    12   ar
    30    12    13   ar
    31    32    33   ar
    32    33    27   ar
    33    13     1    1
    34    20    15   ar
    35    13     8   ar
    36     2    14    1
@<TRIPOS>MOLECULE
*****
 33 36 0 0 0
SMALL
GASTEIGER

@<TRIPOS>ATOM
      1 C          62.5848   87.7368   11.9326 C.3     1  UNL1        0.1244
      2 N          63.1822   88.5875   13.0140 N.3     1  UNL1       -0.2823
      3 C          63.9771   88.1566   14.2109 C.3     1  UNL1        0.1560
      4 C          64.3710   86.7688   14.6220 C.2     1  UNL1        0.2455
      5 O          65.1749   86.6674   15.8842 O.2     1  UNL1       -0.2730
      6 N          64.0672   85.4691   13.9376 N.am    1  UNL1       -0.2560
      7 C          64.6075   84.2398   14.6060 C.3     1  UNL1        0.1200
      8 C          63.2945   85.2361   12.6731 C.ar    1  UNL1        0.0515
      9 C          63.2241   83.7764   12.3350 C.ar    1  UNL1        0.0146
     10 C          62.4941   83.3260   11.1046 C.ar    1  UNL1        0.0013
     11 C          61.8343   84.3352   10.2123 C.ar    1  UNL1       -0.0002
     12 C          61.9047   85.7949   10.5504 C.ar    1  UNL1       -0.0014
     13 C          62.6348   86.2453   11.7808 C.ar    1  UNL1        0.0118
     14 H          62.3902   89.0987   13.4038 H       1  UNL1        0.1243
     15 C          61.8121   87.5038   10.6681 C.ar    1  UNL1       -0.0019
     16 C          62.5378   87.3310    9.3668 C.ar    1  UNL1       -0.0026
     17 C          61.7652   87.0980    8.1024 C.ar    1  UNL1       -0.0003
     18 C          60.2669   87.0379    8.1393 C.ar    1  UNL1       -0.0000
     19 C          59.5411   87.2108    9.4407 C.ar    1  UNL1       -0.0003
     20 C          60.3138   87.4438   10.7051 C.ar    1  UNL1       -0.0026
     21 C          62.1909   89.1246   11.5215 C.3     1  UNL1        0.2256
     22 C          60.8947   89.7089   11.9995 C.2     1  UNL1        0.0920
     23 O          60.4032   89.4106   13.3849 O.co2   1  UNL1       -0.5455
     24 O          60.0900   90.5914   11.0920 O.co2   1  UNL1       -0.5455
     25 O          63.0933   89.9281   10.6326 O.3     1  UNL1       -0.4426
     26 C          65.5888   91.9356   14.7244 C.3     1  UNL1        0.0523
     27 C          65.2309   91.9854   13.2686 C.ar    1  UNL1        0.0652
     28 C          65.7628   93.0889   12.4028 C.ar    1  UNL1        0.0297
     29 C          65.4048   93.1387   10.9470 C.ar    1  UNL1        0.0652
     30 C          65.9367   94.2422   10.0812 C.3     1  UNL1        0.0523
     31 N          64.5150   92.0851   10.3569 N.ar    1  UNL1       -0.1986
     32 C          63.9831   90.9817   11.2227 C.ar    1  UNL1        0.3196
     33 N          64.3411   90.9318   12.6785 N.ar    1  UNL1       -0.1986
@<TRIPOS>UNITY_ATOM_ATTR
23 1
charge -1
@<TRIPOS>BOND
     1    26    27    1
     2    27    28   ar
     3    28    29   ar
     4    29    30    1
     5    29    31   ar
     6    31    32   ar
     7    32    25    1
     8    21    25    1
     9    21    22    1
    10    22    23   ar
    11    22    24   ar
    12    21     1    1
    13     1    15    1
    14    15    16   ar
    15    16    17   ar
    16    17    18   ar
    17    18    19   ar
    18    19    20   ar
    19     1     2    1
    20     2     3    1
    21     3     4    1
    22     4     5    2
    23     4     6   am
    24     6     7    1
    25     6     8    1
    26     8     9   ar
    27     9    10   ar
    28    10    11   ar
    29    11    12   ar
    30    12    13   ar
    31    32    33   ar
    32    33    27   ar
    33    13     1    1
    34    20    15   ar
    35    13     8   ar
    36     2    14    1
@<TRIPOS>MOLECULE
*****
 33 36 0 0 0
SMALL
GASTEIGER

@<TRIPOS>ATOM
      1 C          61.8688   93.9612   -1.4710 C.3     1  UNL1        0.1244
      2 N          61.3863   93.9842   -2.8911 N.3     1  UNL1       -0.2823
      3 C          60.0311   93.6246   -3.4242 C.3     1  UNL1        0.1560
      4 C          58.8238   93.1532   -2.6691 C.2     1  UNL1        0.2455
      5 O          57.6058   92.8730   -3.4984 O.2     1  UNL1       -0.2730
      6 N          58.6736   92.9250   -1.1942 N.am    1  UNL1       -0.2560
      7 C          57.3251   92.4468   -0.7436 C.3     1  UNL1        0.1200
      8 C          59.6934   93.1118   -0.1101 C.ar    1  UNL1        0.0515
      9 C          59.1300   92.7697    1.2372 C.ar    1  UNL1        0.0146
     10 C          59.9886   92.8887    2.4614 C.ar    1  UNL1        0.0013
     11 C          61.4106   93.3499    2.3382 C.ar    1  UNL1       -0.0002
     12 C          61.9740   93.6920    0.9908 C.ar    1  UNL1       -0.0014
     13 C          61.1154   93.5730   -0.2333 C.ar    1  UNL1        0.0118
     14 H          62.0286   93.3680   -3.3892 H       1  UNL1        0.1243
     15 C          62.8887   94.1480   -0.3870 C.ar    1  UNL1       -0.0019
     16 C          62.9331   95.4316    0.3879 C.ar    1  UNL1       -0.0026
     17 C          63.9529   95.6184    1.4718 C.ar    1  UNL1       -0.0003
     18 C          64.9284   94.5217    1.7810 C.ar    1  UNL1       -0.0000
     19 C          64.8840   93.2380    1.0061 C.ar    1  UNL1       -0.0003
     20 C          63.8641   93.0512   -0.0779 C.ar    1  UNL1       -0.0026
     21 C          63.0761   94.4326   -2.2262 C.3     1  UNL1        0.2256
     22 C          63.3628   95.9004   -2.3413 C.2     1  UNL1        0.0920
     23 O          64.7540   96.4130   -2.1137 O.co2   1  UNL1       -0.5455
     24 O          62.2583   96.8556   -2.6841 O.co2   1  UNL1       -0.5455
     25 O          63.9967   93.4361   -2.8661 O.3     1  UNL1       -0.4426
     26 C          65.6361   90.9108   -7.1012 C.3     1  UNL1        0.0523
     27 C          64.8011   91.9863   -6.4719 C.ar    1  UNL1        0.0652
     28 C          63.9508   92.8747   -7.3308 C.ar    1  UNL1        0.0297
     29 C          63.1157   93.9502   -6.7015 C.ar    1  UNL1        0.0652
     30 C          62.2654   94.8386   -7.5604 C.3     1  UNL1        0.0523
     31 N          63.1310   94.1374   -5.2133 N.ar    1  UNL1       -0.1986
     32 C          63.9814   93.2489   -4.3544 C.ar    1  UNL1        0.3196
     33 N          64.8164   92.1734   -4.9837 N.ar    1  UNL1       -0.1986
@<TRIPOS>UNITY_ATOM_ATTR
23 1
charge -1
@<TRIPOS>BOND
     1    26    27    1
     2    27    28   ar
     3    28    29   ar
     4    29    30    1
     5    29    31   ar
     6    31    32   ar
     7    32    25    1
     8    21    25    1
     9    21    22    1
    10    22    23   ar
    11    22    24   ar
    12    21     1    1
    13     1    15    1
    14    15    16   ar
    15    16    17   ar
    16    17    18   ar
    17    18    19   ar
    18    19    20   ar
    19     1     2    1
    20     2     3    1
    21     3     4    1
    22     4     5    2
    23     4     6   am
    24     6     7    1
    25     6     8    1
    26     8     9   ar
    27     9    10   ar
    28    10    11   ar
    29    11    12   ar
    30    12    13   ar
    31    32    33   ar
    32    33    27   ar
    33    13     1    1
    34    20    15   ar
    35    13     8   ar
    36     2    14    1
@<TRIPOS>MOLECULE
*****
 33 36 0 0 0
SMALL
GASTEIGER

@<TRIPOS>ATOM
      1 C          63.1993   87.7829   12.7833 C.3     1  UNL1        0.1244
      2 N          63.9326   87.1892   13.9494 N.3     1  UNL1       -0.2823
      3 C          64.2957   85.7544   14.1934 C.3     1  UNL1        0.1560
      4 C          64.0152   84.5590   13.3317 C.2     1  UNL1        0.2455
      5 O          64.5135   83.2459   13.8582 O.2     1  UNL1       -0.2730
      6 N          63.3023   84.5033   12.0131 N.am    1  UNL1       -0.2560
      7 C          63.1820   83.1417   11.3954 C.3     1  UNL1        0.1200
      8 C          62.6938   85.6291   11.2305 C.ar    1  UNL1        0.0515
      9 C          62.0745   85.1383    9.9556 C.ar    1  UNL1        0.0146
     10 C          61.4092   86.1071    9.0235 C.ar    1  UNL1        0.0013
     11 C          61.3634   87.5667    9.3663 C.ar    1  UNL1       -0.0002
     12 C          61.9828   88.0575   10.6412 C.ar    1  UNL1       -0.0014
     13 C          62.6480   87.0887   11.5733 C.ar    1  UNL1        0.0118
     14 H          63.3766   87.4539   14.7625 H       1  UNL1        0.1243
     15 C          62.5908   88.9088   12.0007 C.ar    1  UNL1       -0.0019
     16 C          63.4250   89.6759   11.0181 C.ar    1  UNL1       -0.0026
     17 C          62.8166   90.8017   10.2356 C.ar    1  UNL1       -0.0003
     18 C          61.3740   91.1604   10.4356 C.ar    1  UNL1       -0.0000
     19 C          60.5397   90.3933   11.4183 C.ar    1  UNL1       -0.0003
     20 C          61.1482   89.2675   12.2009 C.ar    1  UNL1       -0.0026
     21 C          63.4798   88.9783   13.6450 C.3     1  UNL1        0.2256
     22 C          62.8834   89.0694   15.0183 C.2     1  UNL1        0.0920
     23 O          63.6150   88.4916   16.1935 O.co2   1  UNL1       -0.5455
     24 O          61.5555   89.7381   15.2165 O.co2   1  UNL1       -0.5455
     25 O          64.3566   90.0825   13.1334 O.3     1  UNL1       -0.4426
     26 C          64.5331   92.9249   17.4797 C.3     1  UNL1        0.0523
     27 C          65.2148   92.3575   16.2700 C.ar    1  UNL1        0.0652
     28 C          66.6665   92.6438   16.0238 C.ar    1  UNL1        0.0297
     29 C          67.3482   92.0764   14.8141 C.ar    1  UNL1        0.0652
     30 C          68.8000   92.3627   14.5679 C.3     1  UNL1        0.0523
     31 N          66.5783   91.2227   13.8507 N.ar    1  UNL1       -0.1986
     32 C          65.1265   90.9363   14.0969 C.ar    1  UNL1        0.3196
     33 N          64.4448   91.5038   15.3066 N.ar    1  UNL1       -0.1986
@<TRIPOS>UNITY_ATOM_ATTR
23 1
charge -1
@<TRIPOS>BOND
     1    26    27    1
     2    27    28   ar
     3    28    29   ar
     4    29    30    1
     5    29    31   ar
     6    31    32   ar
     7    32    25    1
     8    21    25    1
     9    21    22    1
    10    22    23   ar
    11    22    24   ar
    12    21     1    1
    13     1    15    1
    14    15    16   ar
    15    16    17   ar
    16    17    18   ar
    17    18    19   ar
    18    19    20   ar
    19     1     2    1
    20     2     3    1
    21     3     4    1
    22     4     5    2
    23     4     6   am
    24     6     7    1
    25     6     8    1
    26     8     9   ar
    27     9    10   ar
    28    10    11   ar
    29    11    12   ar
    30    12    13   ar
    31    32    33   ar
    32    33    27   ar
    33    13     1    1
    34    20    15   ar
    35    13     8   ar
    36     2    14    1
@<TRIPOS>MOLECULE
*****
 33 36 0 0 0
SMALL
GASTEIGER

@<TRIPOS>ATOM
      1 C          59.9440   94.1163   -0.9107 C.3     1  UNL1        0.1244
      2 N          59.1177   93.5359    0.1984 N.3     1  UNL1       -0.2823
      3 C          59.5750   92.9957    1.5210 C.3     1  UNL1        0.1560
      4 C          60.9713   92.9026    2.0611 C.2     1  UNL1        0.2455
      5 O          61.1008   92.3067    3.4315 O.2     1  UNL1       -0.2730
      6 N          62.2553   93.3267    1.4118 N.am    1  UNL1       -0.2560
      7 C          63.4990   93.0987    2.2189 C.3     1  UNL1        0.1200
      8 C          62.4601   93.9486    0.0622 C.ar    1  UNL1        0.0515
      9 C          63.9117   94.2190   -0.2019 C.ar    1  UNL1        0.0146
     10 C          64.3346   94.8409   -1.4997 C.ar    1  UNL1        0.0013
     11 C          63.3060   95.1923   -2.5334 C.ar    1  UNL1       -0.0002
     12 C          61.8544   94.9219   -2.2692 C.ar    1  UNL1       -0.0014
     13 C          61.4315   94.3000   -0.9714 C.ar    1  UNL1        0.0118
     14 H          58.6169   92.7602   -0.2350 H       1  UNL1        0.1243
     15 C          60.1488   94.7382   -2.2604 C.ar    1  UNL1       -0.0019
     16 C          60.3337   93.8670   -3.4674 C.ar    1  UNL1       -0.0026
     17 C          60.5385   94.4889   -4.8169 C.ar    1  UNL1       -0.0003
     18 C          60.5584   95.9819   -4.9595 C.ar    1  UNL1       -0.0000
     19 C          60.3735   96.8532   -3.7525 C.ar    1  UNL1       -0.0003
     20 C          60.1687   96.2313   -2.4029 C.ar    1  UNL1       -0.0026
     21 C          58.5477   94.2094   -1.4508 C.3     1  UNL1        0.2256
     22 C          57.7762   92.9594   -1.7547 C.2     1  UNL1        0.0920
     23 O          56.7267   92.4747   -0.7988 O.co2   1  UNL1       -0.5455
     24 O          58.0542   92.1941   -3.0144 O.co2   1  UNL1       -0.5455
     25 O          57.9229   95.5524   -1.6869 O.3     1  UNL1       -0.4426
     26 C          55.6819   95.9246   -6.3602 C.3     1  UNL1        0.0523
     27 C          55.5668   95.8531   -4.8663 C.ar    1  UNL1        0.0652
     28 C          54.2161   95.8962   -4.2152 C.ar    1  UNL1        0.0297
     29 C          54.1011   95.8246   -2.7214 C.ar    1  UNL1        0.0652
     30 C          52.7504   95.8677   -2.0702 C.3     1  UNL1        0.0523
     31 N          55.3366   95.7101   -1.8786 N.ar    1  UNL1       -0.1986
     32 C          56.6873   95.6670   -2.5298 C.ar    1  UNL1        0.3196
     33 N          56.8023   95.7385   -4.0236 N.ar    1  UNL1       -0.1986
@<TRIPOS>UNITY_ATOM_ATTR
23 1
charge -1
@<TRIPOS>BOND
     1    26    27    1
     2    27    28   ar
     3    28    29   ar
     4    29    30    1
     5    29    31   ar
     6    31    32   ar
     7    32    25    1
     8    21    25    1
     9    21    22    1
    10    22    23   ar
    11    22    24   ar
    12    21     1    1
    13     1    15    1
    14    15    16   ar
    15    16    17   ar
    16    17    18   ar
    17    18    19   ar
    18    19    20   ar
    19     1     2    1
    20     2     3    1
    21     3     4    1
    22     4     5    2
    23     4     6   am
    24     6     7    1
    25     6     8    1
    26     8     9   ar
    27     9    10   ar
    28    10    11   ar
    29    11    12   ar
    30    12    13   ar
    31    32    33   ar
    32    33    27   ar
    33    13     1    1
    34    20    15   ar
    35    13     8   ar
    36     2    14    1
