@<TRIPOS>MOLECULE
*****
 37 41 0 0 0
SMALL
GASTEIGER

@<TRIPOS>ATOM
      1 C          62.9809   89.3931   11.8546 C.ar    1  UNL1        0.1633
      2 N          62.1044   90.0687   10.8420 N.ar    1  UNL1       -0.2294
      3 C          61.3598   89.2500    9.8294 C.ar    1  UNL1        0.0795
      4 C          61.4917   87.7558    9.8293 C.ar    1  UNL1        0.0264
      5 C          62.3683   87.0803   10.8419 C.ar    1  UNL1        0.1306
      6 N          63.1129   87.8989   11.8545 N.ar    1  UNL1       -0.2122
      7 C          60.7471   86.9372    8.8167 C.3     1  UNL1        0.0520
      8 C          59.8706   87.6128    7.8042 C.3     1  UNL1        0.0988
      9 N          59.7387   89.1070    7.8042 N.pl3   1  UNL1       -0.2722
     10 C          60.4833   89.9256    8.8168 C.3     1  UNL1        0.1393
     11 N          62.5002   85.5861   10.8419 N.pl3   1  UNL1       -0.2900
     12 C          62.1370   84.8011   12.0673 C.3     1  UNL1        0.1242
     13 C          62.2689   83.3069   12.0673 C.3     1  UNL1        0.1636
     14 O          62.7641   82.5977   10.8418 O.3     1  UNL1       -0.3502
     15 C          63.1274   83.3828    9.6163 C.3     1  UNL1        0.1618
     16 C          62.9955   84.8769    9.6163 C.3     1  UNL1        0.1038
     17 C          63.3587   85.6620    8.3909 C.3     1  UNL1        0.0241
     18 C          65.2148   91.8490   14.8924 C.ar    1  UNL1        0.0516
     19 C          65.2107   92.2622   13.4505 C.ar    1  UNL1        0.0148
     20 C          64.4661   91.4435   12.4379 C.ar    1  UNL1        0.0043
     21 C          63.7256   90.2117   12.8672 C.ar    1  UNL1        0.0359
     22 C          63.7297   89.7985   14.3092 C.ar    1  UNL1        0.0043
     23 C          64.4744   90.6171   15.3218 C.ar    1  UNL1        0.0148
     24 N          68.0060   94.1332   16.5482 N.am    1  UNL1       -0.2887
     25 C          67.2613   93.3146   15.5356 C.2     1  UNL1        0.3045
     26 O          67.8185   93.1431   14.1535 O.2     1  UNL1       -0.2525
     27 N          65.9595   92.6676   15.9051 N.am    1  UNL1       -0.2683
     28 H          67.6402   94.2458   17.4553 H       1  UNL1        0.1510
     29 H          65.5937   92.7802   16.8122 H       1  UNL1        0.1564
     30 C          70.4754   93.9340   15.7660 C.3     1  UNL1        0.0230
     31 C          69.3078   94.7803   16.1788 C.3     1  UNL1        0.0910
     32 C          58.8621   89.7825    6.7916 C.ar    1  UNL1        0.2205
     33 N          57.4020   89.4465    6.7204 N.ar    1  UNL1       -0.2121
     34 C          56.5254   90.1221    5.7078 C.ar    1  UNL1        0.1034
     35 C          57.1091   91.1336    4.7664 C.ar    1  UNL1        0.0414
     36 C          58.5693   91.4696    4.8377 C.ar    1  UNL1        0.1034
     37 N          59.4457   90.7940    5.8502 N.ar    1  UNL1       -0.2121
@<TRIPOS>BOND
     1    30    31    1
     2    31    24    1
     3    24    25   am
     4    25    26    2
     5    25    27   am
     6    27    18    1
     7    18    19   ar
     8    19    20   ar
     9    20    21   ar
    10    21     1    1
    11     1     2   ar
    12     2     3   ar
    13     3     4   ar
    14     4     5   ar
    15     5    11    1
    16    11    12    1
    17    12    13    1
    18    13    14    1
    19    14    15    1
    20    15    16    1
    21    16    17    1
    22     5     6   ar
    23     4     7    1
    24     7     8    1
    25     8     9    1
    26     9    32    1
    27    32    33   ar
    28    33    34   ar
    29    34    35   ar
    30    35    36   ar
    31    36    37   ar
    32     9    10    1
    33    21    22   ar
    34    22    23   ar
    35    23    18   ar
    36     6     1   ar
    37    37    32   ar
    38    10     3    1
    39    16    11    1
    40    24    28    1
    41    27    29    1
@<TRIPOS>MOLECULE
*****
 37 41 0 0 0
SMALL
GASTEIGER

@<TRIPOS>ATOM
      1 C          63.5902   88.9748   12.5367 C.ar    1  UNL1        0.1633
      2 N          63.7891   87.5948   13.0899 N.ar    1  UNL1       -0.2294
      3 C          63.0826   86.4277   12.4662 C.ar    1  UNL1        0.0795
      4 C          62.1771   86.6407   11.2895 C.ar    1  UNL1        0.0264
      5 C          61.9782   88.0208   10.7363 C.ar    1  UNL1        0.1306
      6 N          62.6847   89.1878   11.3599 N.ar    1  UNL1       -0.2122
      7 C          61.4706   85.4737   10.6659 C.3     1  UNL1        0.0520
      8 C          61.6695   84.0937   11.2190 C.3     1  UNL1        0.0988
      9 N          62.5750   83.8807   12.3958 N.pl3   1  UNL1       -0.2722
     10 C          63.2815   85.0477   13.0194 C.3     1  UNL1        0.1393
     11 N          61.0728   88.2338    9.5595 N.pl3   1  UNL1       -0.2900
     12 C          60.9270   87.1609    8.5215 C.3     1  UNL1        0.1242
     13 C          60.0215   87.3739    7.3447 C.3     1  UNL1        0.1636
     14 O          59.2619   88.6598    7.2060 O.3     1  UNL1       -0.3502
     15 C          59.4076   89.7328    8.2441 C.3     1  UNL1        0.1618
     16 C          60.3131   89.5198    9.4208 C.3     1  UNL1        0.1038
     17 C          60.4588   90.5927   10.4589 C.3     1  UNL1        0.0241
     18 C          65.7098   92.4758   14.4075 C.ar    1  UNL1        0.0516
     19 C          65.2834   91.3158   15.2575 C.ar    1  UNL1        0.0148
     20 C          64.5769   90.1488   14.6339 C.ar    1  UNL1        0.0043
     21 C          64.2967   90.1418   13.1603 C.ar    1  UNL1        0.0359
     22 C          64.7231   91.3018   12.3103 C.ar    1  UNL1        0.0043
     23 C          65.4296   92.4688   12.9339 C.ar    1  UNL1        0.0148
     24 N          68.5705   94.6964   16.0308 N.am    1  UNL1       -0.2887
     25 C          67.8640   93.5295   15.4072 C.2     1  UNL1        0.3045
     26 O          68.6051   92.2490   15.1597 O.2     1  UNL1       -0.2525
     27 N          66.4163   93.6429   15.0311 N.am    1  UNL1       -0.2683
     28 H          68.0841   95.5368   16.1932 H       1  UNL1        0.1510
     29 H          65.9299   94.4833   15.1936 H       1  UNL1        0.1564
     30 C          71.0805   94.7625   15.3632 C.3     1  UNL1        0.0230
     31 C          70.0182   94.5830   16.4069 C.3     1  UNL1        0.0910
     32 C          62.7739   82.5007   12.9490 C.ar    1  UNL1        0.2205
     33 N          61.5950   81.5942   13.1450 N.ar    1  UNL1       -0.2121
     34 C          61.7939   80.2141   13.6982 C.ar    1  UNL1        0.1034
     35 C          63.1717   79.7406   14.0553 C.ar    1  UNL1        0.0414
     36 C          64.3506   80.6472   13.8592 C.ar    1  UNL1        0.1034
     37 N          64.1517   82.0272   13.3061 N.ar    1  UNL1       -0.2121
@<TRIPOS>BOND
     1    30    31    1
     2    31    24    1
     3    24    25   am
     4    25    26    2
     5    25    27   am
     6    27    18    1
     7    18    19   ar
     8    19    20   ar
     9    20    21   ar
    10    21     1    1
    11     1     2   ar
    12     2     3   ar
    13     3     4   ar
    14     4     5   ar
    15     5    11    1
    16    11    12    1
    17    12    13    1
    18    13    14    1
    19    14    15    1
    20    15    16    1
    21    16    17    1
    22     5     6   ar
    23     4     7    1
    24     7     8    1
    25     8     9    1
    26     9    32    1
    27    32    33   ar
    28    33    34   ar
    29    34    35   ar
    30    35    36   ar
    31    36    37   ar
    32     9    10    1
    33    21    22   ar
    34    22    23   ar
    35    23    18   ar
    36     6     1   ar
    37    37    32   ar
    38    10     3    1
    39    16    11    1
    40    24    28    1
    41    27    29    1
@<TRIPOS>MOLECULE
*****
 37 41 0 0 0
SMALL
GASTEIGER

@<TRIPOS>ATOM
      1 C          72.1629   75.3769   14.0433 C.ar    1  UNL1        0.1633
      2 N          71.6607   74.2491   13.1915 N.ar    1  UNL1       -0.2294
      3 C          71.3108   72.9327   13.8200 C.ar    1  UNL1        0.0795
      4 C          71.4631   72.7444   15.3003 C.ar    1  UNL1        0.0264
      5 C          71.9653   73.8723   16.1521 C.ar    1  UNL1        0.1306
      6 N          72.3152   75.1886   15.5236 N.ar    1  UNL1       -0.2122
      7 C          71.1132   71.4281   15.9287 C.3     1  UNL1        0.0520
      8 C          70.6110   70.3003   15.0769 C.3     1  UNL1        0.0988
      9 N          70.4586   70.4887   13.5966 N.pl3   1  UNL1       -0.2722
     10 C          70.8085   71.8049   12.9681 C.3     1  UNL1        0.1393
     11 N          72.1177   73.6839   17.6324 N.pl3   1  UNL1       -0.2900
     12 C          73.4806   73.4874   18.2271 C.3     1  UNL1        0.1242
     13 C          73.6329   73.2990   19.7074 C.3     1  UNL1        0.1636
     14 O          72.4223   73.3072   20.5930 O.3     1  UNL1       -0.3502
     15 C          71.0593   73.5037   19.9983 C.3     1  UNL1        0.1618
     16 C          70.9070   73.6921   18.5180 C.3     1  UNL1        0.1038
     17 C          69.5440   73.8887   17.9233 C.3     1  UNL1        0.0241
     18 C          73.2127   79.3258   12.1581 C.ar    1  UNL1        0.0516
     19 C          72.9282   79.2490   13.6288 C.ar    1  UNL1        0.0148
     20 C          72.5783   77.9327   14.2572 C.ar    1  UNL1        0.0043
     21 C          72.5128   76.6933   13.4148 C.ar    1  UNL1        0.0359
     22 C          72.7973   76.7701   11.9441 C.ar    1  UNL1        0.0043
     23 C          73.1472   78.0864   11.3157 C.ar    1  UNL1        0.0148
     24 N          73.0340   82.5357    9.8310 N.am    1  UNL1       -0.2887
     25 C          72.6841   81.2194   10.4595 C.2     1  UNL1        0.3045
     26 O          71.4557   80.4804   10.0179 O.2     1  UNL1       -0.2525
     27 N          73.5626   80.6422   11.5296 N.am    1  UNL1       -0.2683
     28 H          73.8402   83.0207   10.1209 H       1  UNL1        0.1510
     29 H          74.3688   81.1272   11.8195 H       1  UNL1        0.1564
     30 C          72.0791   82.4528    7.4162 C.3     1  UNL1        0.0230
     31 C          72.1555   83.1130    8.7610 C.3     1  UNL1        0.0910
     32 C          69.9564   69.3607   12.7448 C.ar    1  UNL1        0.2205
     33 N          68.8806   69.6091   11.7294 N.ar    1  UNL1       -0.2121
     34 C          68.3783   68.4812   10.8776 C.ar    1  UNL1        0.1034
     35 C          68.9519   67.1048   11.0412 C.ar    1  UNL1        0.0414
     36 C          70.0277   66.8565   12.0566 C.ar    1  UNL1        0.1034
     37 N          70.5299   67.9844   12.9084 N.ar    1  UNL1       -0.2121
@<TRIPOS>BOND
     1    30    31    1
     2    31    24    1
     3    24    25   am
     4    25    26    2
     5    25    27   am
     6    27    18    1
     7    18    19   ar
     8    19    20   ar
     9    20    21   ar
    10    21     1    1
    11     1     2   ar
    12     2     3   ar
    13     3     4   ar
    14     4     5   ar
    15     5    11    1
    16    11    12    1
    17    12    13    1
    18    13    14    1
    19    14    15    1
    20    15    16    1
    21    16    17    1
    22     5     6   ar
    23     4     7    1
    24     7     8    1
    25     8     9    1
    26     9    32    1
    27    32    33   ar
    28    33    34   ar
    29    34    35   ar
    30    35    36   ar
    31    36    37   ar
    32     9    10    1
    33    21    22   ar
    34    22    23   ar
    35    23    18   ar
    36     6     1   ar
    37    37    32   ar
    38    10     3    1
    39    16    11    1
    40    24    28    1
    41    27    29    1
@<TRIPOS>MOLECULE
*****
 37 41 0 0 0
SMALL
GASTEIGER

@<TRIPOS>ATOM
      1 C          61.3758   88.1885    9.8629 C.ar    1  UNL1        0.1633
      2 N          61.3299   86.7015   10.0538 N.ar    1  UNL1       -0.2294
      3 C          62.0277   86.0736   11.2238 C.ar    1  UNL1        0.0795
      4 C          62.7714   86.9329   12.2029 C.ar    1  UNL1        0.0264
      5 C          62.8173   88.4201   12.0119 C.ar    1  UNL1        0.1306
      6 N          62.1195   89.0478   10.8419 N.ar    1  UNL1       -0.2122
      7 C          63.4692   86.3052   13.3729 C.3     1  UNL1        0.0520
      8 C          63.4234   84.8181   13.5638 C.3     1  UNL1        0.0988
      9 N          62.6797   83.9588   12.5848 N.pl3   1  UNL1       -0.2722
     10 C          61.9819   84.5866   11.4148 C.3     1  UNL1        0.1393
     11 N          63.5610   89.2794   12.9909 N.pl3   1  UNL1       -0.2900
     12 C          63.8205   88.7799   14.3813 C.3     1  UNL1        0.1242
     13 C          64.5642   89.6392   15.3603 C.3     1  UNL1        0.1636
     14 O          65.0483   90.9980   14.9490 O.3     1  UNL1       -0.3502
     15 C          64.7888   91.4975   13.5586 C.3     1  UNL1        0.1618
     16 C          64.0451   90.6382   12.5796 C.3     1  UNL1        0.1038
     17 C          63.7856   91.1378   11.1893 C.3     1  UNL1        0.0241
     18 C          59.2823   90.0719    6.3528 C.ar    1  UNL1        0.0516
     19 C          59.0607   88.6224    6.6688 C.ar    1  UNL1        0.0148
     20 C          59.7585   87.9947    7.8388 C.ar    1  UNL1        0.0043
     21 C          60.6780   88.8164    8.6928 C.ar    1  UNL1        0.0359
     22 C          60.8996   90.2658    8.3769 C.ar    1  UNL1        0.0043
     23 C          60.2018   90.8936    7.2069 C.ar    1  UNL1        0.0148
     24 N          58.6498   92.2095    3.0694 N.am    1  UNL1       -0.2887
     25 C          59.3476   91.5817    4.2394 C.2     1  UNL1        0.3045
     26 O          60.8084   91.8358    4.4661 O.2     1  UNL1       -0.2525
     27 N          58.5845   90.6997    5.1828 N.am    1  UNL1       -0.2683
     28 H          57.6910   92.0427    2.9207 H       1  UNL1        0.1510
     29 H          57.6257   90.5330    5.0340 H       1  UNL1        0.1564
     30 C          59.0721   93.0994    0.6654 C.3     1  UNL1        0.0230
     31 C          59.4129   93.0914    2.1261 C.3     1  UNL1        0.0910
     32 C          62.6338   82.4717   12.7758 C.ar    1  UNL1        0.2205
     33 N          62.2980   81.8982   14.1205 N.ar    1  UNL1       -0.2121
     34 C          62.2522   80.4111   14.3115 C.ar    1  UNL1        0.1034
     35 C          62.5421   79.4975   13.1577 C.ar    1  UNL1        0.0414
     36 C          62.8779   80.0710   11.8129 C.ar    1  UNL1        0.1034
     37 N          62.9238   81.5581   11.6220 N.ar    1  UNL1       -0.2121
@<TRIPOS>BOND
     1    30    31    1
     2    31    24    1
     3    24    25   am
     4    25    26    2
     5    25    27   am
     6    27    18    1
     7    18    19   ar
     8    19    20   ar
     9    20    21   ar
    10    21     1    1
    11     1     2   ar
    12     2     3   ar
    13     3     4   ar
    14     4     5   ar
    15     5    11    1
    16    11    12    1
    17    12    13    1
    18    13    14    1
    19    14    15    1
    20    15    16    1
    21    16    17    1
    22     5     6   ar
    23     4     7    1
    24     7     8    1
    25     8     9    1
    26     9    32    1
    27    32    33   ar
    28    33    34   ar
    29    34    35   ar
    30    35    36   ar
    31    36    37   ar
    32     9    10    1
    33    21    22   ar
    34    22    23   ar
    35    23    18   ar
    36     6     1   ar
    37    37    32   ar
    38    10     3    1
    39    16    11    1
    40    24    28    1
    41    27    29    1
@<TRIPOS>MOLECULE
*****
 37 41 0 0 0
SMALL
GASTEIGER

@<TRIPOS>ATOM
      1 C          61.7993   88.0157   10.9362 C.ar    1  UNL1        0.1633
      2 N          62.5871   89.1326   11.5541 N.ar    1  UNL1       -0.2294
      3 C          63.4837   88.8595   12.7253 C.ar    1  UNL1        0.0795
      4 C          63.5924   87.4695   13.2786 C.ar    1  UNL1        0.0264
      5 C          62.8045   86.3526   12.6606 C.ar    1  UNL1        0.1306
      6 N          61.9080   86.6257   11.4895 N.ar    1  UNL1       -0.2122
      7 C          64.4888   87.1964   14.4497 C.3     1  UNL1        0.0520
      8 C          65.2767   88.3133   15.0676 C.3     1  UNL1        0.0988
      9 N          65.1680   89.7033   14.5143 N.pl3   1  UNL1       -0.2722
     10 C          64.2715   89.9764   13.3432 C.3     1  UNL1        0.1393
     11 N          62.9131   84.9626   13.2139 N.pl3   1  UNL1       -0.2900
     12 C          62.6514   84.7122   14.6695 C.3     1  UNL1        0.1242
     13 C          62.7600   83.3222   15.2228 C.3     1  UNL1        0.1636
     14 O          63.1304   82.1826   14.3205 O.3     1  UNL1       -0.3502
     15 C          63.3922   82.4330   12.8649 C.3     1  UNL1        0.1618
     16 C          63.2835   83.8230   12.3116 C.3     1  UNL1        0.1038
     17 C          63.5452   84.0734   10.8560 C.3     1  UNL1        0.0241
     18 C          59.1097   88.8347    7.4226 C.ar    1  UNL1        0.0516
     19 C          59.4332   87.4211    7.8060 C.ar    1  UNL1        0.0148
     20 C          60.3298   87.1481    8.9771 C.ar    1  UNL1        0.0043
     21 C          60.9028   88.2887    9.7650 C.ar    1  UNL1        0.0359
     22 C          60.5792   89.7023    9.3816 C.ar    1  UNL1        0.0043
     23 C          59.6827   89.9753    8.2104 C.ar    1  UNL1        0.0148
     24 N          57.4338   90.6756    4.3319 N.am    1  UNL1       -0.2887
     25 C          58.3302   90.4025    5.5031 C.2     1  UNL1        0.3045
     26 O          59.3439   91.4242    5.9261 O.2     1  UNL1       -0.2525
     27 N          58.2132   89.1078    6.2514 N.am    1  UNL1       -0.2683
     28 H          56.7685   90.0051    4.0543 H       1  UNL1        0.1510
     29 H          57.5479   88.4372    5.9738 H       1  UNL1        0.1564
     30 C          58.8873   92.4259    3.0774 C.3     1  UNL1        0.0230
     31 C          57.5508   91.9704    3.5837 C.3     1  UNL1        0.0910
     32 C          65.9559   90.8202   15.1323 C.ar    1  UNL1        0.2205
     33 N          65.2502   91.9090   15.8848 N.ar    1  UNL1       -0.2121
     34 C          66.0381   93.0259   16.5028 C.ar    1  UNL1        0.1034
     35 C          67.5317   93.0540   16.3681 C.ar    1  UNL1        0.0414
     36 C          68.2375   91.9651   15.6155 C.ar    1  UNL1        0.1034
     37 N          67.4496   90.8483   14.9976 N.ar    1  UNL1       -0.2121
@<TRIPOS>BOND
     1    30    31    1
     2    31    24    1
     3    24    25   am
     4    25    26    2
     5    25    27   am
     6    27    18    1
     7    18    19   ar
     8    19    20   ar
     9    20    21   ar
    10    21     1    1
    11     1     2   ar
    12     2     3   ar
    13     3     4   ar
    14     4     5   ar
    15     5    11    1
    16    11    12    1
    17    12    13    1
    18    13    14    1
    19    14    15    1
    20    15    16    1
    21    16    17    1
    22     5     6   ar
    23     4     7    1
    24     7     8    1
    25     8     9    1
    26     9    32    1
    27    32    33   ar
    28    33    34   ar
    29    34    35   ar
    30    35    36   ar
    31    36    37   ar
    32     9    10    1
    33    21    22   ar
    34    22    23   ar
    35    23    18   ar
    36     6     1   ar
    37    37    32   ar
    38    10     3    1
    39    16    11    1
    40    24    28    1
    41    27    29    1
