@<TRIPOS>MOLECULE
*****
 22 25 0 0 0
SMALL
GASTEIGER

@<TRIPOS>ATOM
      1 O          60.8127   87.3481    8.6188 O.2     1  UNL1       -0.2638
      2 C          61.6070   87.7557    9.8242 C.2     1  UNL1        0.3160
      3 N          61.9645   89.1972   10.0346 N.am    1  UNL1       -0.1720
      4 C          62.7588   89.6048   11.2400 C.ar    1  UNL1        0.0775
      5 C          63.1162   91.0463   11.4503 C.ar    1  UNL1        0.0176
      6 C          63.9105   91.4539   12.6557 C.ar    1  UNL1        0.0127
      7 C          64.3474   90.4199   13.6508 C.ar    1  UNL1        0.0579
      8 CL         65.1417   90.8275   14.8562 Cl      1  UNL1       -0.0822
      9 C          63.9899   88.9784   13.4404 C.ar    1  UNL1        0.0165
     10 C          63.1956   88.5709   12.2350 C.ar    1  UNL1        0.0631
     11 C          62.8382   87.1293   12.0246 C.2     1  UNL1        0.2419
     12 N          63.1272   85.8961   12.8280 N.2     1  UNL1       -0.0302
     13 C          62.5116   84.7262   12.1191 C.2     1  UNL1        0.3765
     14 N          61.8420   85.2366   10.8777 N.2     1  UNL1       -0.0256
     15 C          62.0439   86.7218   10.8193 C.2     1  UNL1        0.2907
     16 C          62.5574   83.2970   12.5722 C.ar    1  UNL1        0.0989
     17 C          62.0050   82.9175   13.9141 C.ar    1  UNL1        0.0085
     18 C          62.0509   81.4883   14.3671 C.ar    1  UNL1        0.0003
     19 C          62.6492   80.4386   13.4782 C.ar    1  UNL1        0.0009
     20 C          63.2016   80.8181   12.1363 C.ar    1  UNL1        0.0116
     21 C          63.1557   82.2473   11.6833 C.ar    1  UNL1        0.0651
     22 CL         63.7081   82.6268   10.3413 Cl      1  UNL1       -0.0820
@<TRIPOS>BOND
     1     1     2    2
     2     2     3    1
     3     3     4    2
     4     4     5   ar
     5     5     6   ar
     6     6     7   ar
     7     7     8    1
     8     7     9   ar
     9     9    10   ar
    10    10    11    2
    11    11    12    1
    12    12    13    2
    13    13    16    1
    14    16    17   ar
    15    17    18   ar
    16    18    19   ar
    17    19    20   ar
    18    20    21   ar
    19    21    22    1
    20    13    14    1
    21    14    15    2
    22    15     2    1
    23    10     4   ar
    24    15    11    1
    25    21    16   ar
@<TRIPOS>MOLECULE
*****
 22 25 0 0 0
SMALL
GASTEIGER

@<TRIPOS>ATOM
      1 O          60.4783   87.5369    8.8516 O.2     1  UNL1       -0.2638
      2 C          61.3813   87.9122    9.9891 C.2     1  UNL1        0.3160
      3 N          61.7609   89.3474   10.2033 N.am    1  UNL1       -0.1720
      4 C          62.6639   89.7227   11.3408 C.ar    1  UNL1        0.0775
      5 C          63.0435   91.1579   11.5551 C.ar    1  UNL1        0.0176
      6 C          63.9465   91.5331   12.6925 C.ar    1  UNL1        0.0127
      7 C          64.4699   90.4730   13.6157 C.ar    1  UNL1        0.0579
      8 CL         65.3729   90.8482   14.7532 Cl      1  UNL1       -0.0822
      9 C          64.0903   89.0378   13.4015 C.ar    1  UNL1        0.0165
     10 C          63.1873   88.6626   12.2640 C.ar    1  UNL1        0.0631
     11 C          62.8077   87.2273   12.0497 C.2     1  UNL1        0.2419
     12 N          63.1657   85.9731   12.7905 N.2     1  UNL1       -0.0302
     13 C          62.4840   84.8227   12.1109 C.2     1  UNL1        0.3765
     14 N          61.7047   85.3660   10.9501 N.2     1  UNL1       -0.0256
     15 C          61.9047   86.8521   10.9123 C.2     1  UNL1        0.2907
     16 C          62.5670   83.3820   12.5202 C.ar    1  UNL1        0.0989
     17 C          62.8707   82.3279   11.4972 C.ar    1  UNL1        0.0085
     18 C          62.9537   80.8873   11.9065 C.ar    1  UNL1        0.0003
     19 C          62.7331   80.5007   13.3390 C.ar    1  UNL1        0.0009
     20 C          62.4294   81.5548   14.3620 C.ar    1  UNL1        0.0116
     21 C          62.3464   82.9954   13.9527 C.ar    1  UNL1        0.0651
     22 CL         62.0427   84.0496   14.9758 Cl      1  UNL1       -0.0820
@<TRIPOS>BOND
     1     1     2    2
     2     2     3    1
     3     3     4    2
     4     4     5   ar
     5     5     6   ar
     6     6     7   ar
     7     7     8    1
     8     7     9   ar
     9     9    10   ar
    10    10    11    2
    11    11    12    1
    12    12    13    2
    13    13    16    1
    14    16    17   ar
    15    17    18   ar
    16    18    19   ar
    17    19    20   ar
    18    20    21   ar
    19    21    22    1
    20    13    14    1
    21    14    15    2
    22    15     2    1
    23    10     4   ar
    24    15    11    1
    25    21    16   ar
@<TRIPOS>MOLECULE
*****
 22 25 0 0 0
SMALL
GASTEIGER

@<TRIPOS>ATOM
      1 O          62.8103   84.9398   12.4844 O.2     1  UNL1       -0.2638
      2 C          62.2664   86.0011   11.5745 C.2     1  UNL1        0.3160
      3 N          61.3411   85.6269   10.4548 N.am    1  UNL1       -0.1720
      4 C          60.7973   86.6882    9.5448 C.ar    1  UNL1        0.0775
      5 C          59.8720   86.3141    8.4251 C.ar    1  UNL1        0.0176
      6 C          59.3282   87.3754    7.5152 C.ar    1  UNL1        0.0127
      7 C          59.7096   88.8108    7.7251 C.ar    1  UNL1        0.0579
      8 CL         59.1658   89.8721    6.8151 Cl      1  UNL1       -0.0822
      9 C          60.6349   89.1849    8.8448 C.ar    1  UNL1        0.0165
     10 C          61.1787   88.1237    9.7547 C.ar    1  UNL1        0.0631
     11 C          62.1041   88.4978   10.8744 C.2     1  UNL1        0.2419
     12 N          62.6536   89.8194   11.3233 N.2     1  UNL1       -0.0302
     13 C          63.5370   89.5749   12.5106 C.2     1  UNL1        0.3765
     14 N          63.5335   88.1022   12.7955 N.2     1  UNL1       -0.0256
     15 C          62.6479   87.4365   11.7843 C.2     1  UNL1        0.2907
     16 C          64.2915   90.6197   13.2782 C.ar    1  UNL1        0.0989
     17 C          65.0828   91.6627   12.5463 C.ar    1  UNL1        0.0085
     18 C          65.8373   92.7075   13.3140 C.ar    1  UNL1        0.0003
     19 C          65.8004   92.7091   14.8135 C.ar    1  UNL1        0.0009
     20 C          65.0091   91.6660   15.5454 C.ar    1  UNL1        0.0116
     21 C          64.2546   90.6213   14.7778 C.ar    1  UNL1        0.0651
     22 CL         63.4632   89.5782   15.5097 Cl      1  UNL1       -0.0820
@<TRIPOS>BOND
     1     1     2    2
     2     2     3    1
     3     3     4    2
     4     4     5   ar
     5     5     6   ar
     6     6     7   ar
     7     7     8    1
     8     7     9   ar
     9     9    10   ar
    10    10    11    2
    11    11    12    1
    12    12    13    2
    13    13    16    1
    14    16    17   ar
    15    17    18   ar
    16    18    19   ar
    17    19    20   ar
    18    20    21   ar
    19    21    22    1
    20    13    14    1
    21    14    15    2
    22    15     2    1
    23    10     4   ar
    24    15    11    1
    25    21    16   ar
@<TRIPOS>MOLECULE
*****
 22 25 0 0 0
SMALL
GASTEIGER

@<TRIPOS>ATOM
      1 O          63.0658   84.9965   12.7431 O.2     1  UNL1       -0.2638
      2 C          62.4821   85.9891   11.7817 C.2     1  UNL1        0.3160
      3 N          61.5519   85.5272   10.6994 N.am    1  UNL1       -0.1720
      4 C          60.9683   86.5197    9.7380 C.ar    1  UNL1        0.0775
      5 C          60.0380   86.0579    8.6558 C.ar    1  UNL1        0.0176
      6 C          59.4544   87.0504    7.6944 C.ar    1  UNL1        0.0127
      7 C          59.8012   88.5048    7.8152 C.ar    1  UNL1        0.0579
      8 CL         59.2176   89.4973    6.8537 Cl      1  UNL1       -0.0822
      9 C          60.7314   88.9666    8.8974 C.ar    1  UNL1        0.0165
     10 C          61.3150   87.9741    9.8588 C.ar    1  UNL1        0.0631
     11 C          62.2453   88.4359   10.9411 C.2     1  UNL1        0.2419
     12 N          62.7662   89.7948   11.3045 N.2     1  UNL1       -0.0302
     13 C          63.6717   89.6421   12.4906 C.2     1  UNL1        0.3765
     14 N          63.7104   88.1889   12.8601 N.2     1  UNL1       -0.0256
     15 C          62.8289   87.4434   11.9025 C.2     1  UNL1        0.2907
     16 C          64.4090   90.7485   13.1852 C.ar    1  UNL1        0.0989
     17 C          64.6219   90.6920   14.6689 C.ar    1  UNL1        0.0085
     18 C          65.3591   91.7984   15.3634 C.ar    1  UNL1        0.0003
     19 C          65.8835   92.9612   14.5742 C.ar    1  UNL1        0.0009
     20 C          65.6706   93.0177   13.0905 C.ar    1  UNL1        0.0116
     21 C          64.9334   91.9113   12.3960 C.ar    1  UNL1        0.0651
     22 CL         64.7204   91.9678   10.9122 Cl      1  UNL1       -0.0820
@<TRIPOS>BOND
     1     1     2    2
     2     2     3    1
     3     3     4    2
     4     4     5   ar
     5     5     6   ar
     6     6     7   ar
     7     7     8    1
     8     7     9   ar
     9     9    10   ar
    10    10    11    2
    11    11    12    1
    12    12    13    2
    13    13    16    1
    14    16    17   ar
    15    17    18   ar
    16    18    19   ar
    17    19    20   ar
    18    20    21   ar
    19    21    22    1
    20    13    14    1
    21    14    15    2
    22    15     2    1
    23    10     4   ar
    24    15    11    1
    25    21    16   ar
@<TRIPOS>MOLECULE
*****
 22 25 0 0 0
SMALL
GASTEIGER

@<TRIPOS>ATOM
      1 O          64.1835   87.6706   14.2478 O.2     1  UNL1       -0.2638
      2 C          63.7757   86.3381   13.6925 C.2     1  UNL1        0.3160
      3 N          64.2352   85.0754   14.3591 N.am    1  UNL1       -0.1720
      4 C          63.8275   83.7429   13.8038 C.ar    1  UNL1        0.0775
      5 C          64.2870   82.4802   14.4704 C.ar    1  UNL1        0.0176
      6 C          63.8792   81.1478   13.9152 C.ar    1  UNL1        0.0127
      7 C          63.0120   81.0781   12.6933 C.ar    1  UNL1        0.0579
      8 CL         62.6042   79.7456   12.1380 Cl      1  UNL1       -0.0822
      9 C          62.5525   82.3408   12.0267 C.ar    1  UNL1        0.0165
     10 C          62.9602   83.6732   12.5819 C.ar    1  UNL1        0.0631
     11 C          62.5007   84.9360   11.9153 C.2     1  UNL1        0.2419
     12 N          61.6462   85.1793   10.7068 N.2     1  UNL1       -0.0302
     13 C          61.5259   86.6621   10.5152 C.2     1  UNL1        0.3765
     14 N          62.3060   87.3352   11.6053 N.2     1  UNL1       -0.0256
     15 C          62.9085   86.2684   12.4706 C.2     1  UNL1        0.2907
     16 C          60.7598   87.3509    9.4248 C.ar    1  UNL1        0.0989
     17 C          59.9017   86.5507    8.4903 C.ar    1  UNL1        0.0085
     18 C          59.1358   87.2395    7.4000 C.ar    1  UNL1        0.0003
     19 C          59.2279   88.7285    7.2442 C.ar    1  UNL1        0.0009
     20 C          60.0860   89.5287    8.1786 C.ar    1  UNL1        0.0116
     21 C          60.8520   88.8399    9.2689 C.ar    1  UNL1        0.0651
     22 CL         61.7101   89.6402   10.2034 Cl      1  UNL1       -0.0820
@<TRIPOS>BOND
     1     1     2    2
     2     2     3    1
     3     3     4    2
     4     4     5   ar
     5     5     6   ar
     6     6     7   ar
     7     7     8    1
     8     7     9   ar
     9     9    10   ar
    10    10    11    2
    11    11    12    1
    12    12    13    2
    13    13    16    1
    14    16    17   ar
    15    17    18   ar
    16    18    19   ar
    17    19    20   ar
    18    20    21   ar
    19    21    22    1
    20    13    14    1
    21    14    15    2
    22    15     2    1
    23    10     4   ar
    24    15    11    1
    25    21    16   ar
@<TRIPOS>MOLECULE
*****
 22 25 0 0 0
SMALL
GASTEIGER

@<TRIPOS>ATOM
      1 O          58.8775   91.2008   11.5021 O.2     1  UNL1       -0.2638
      2 C          59.8025   90.1532   10.9572 C.2     1  UNL1        0.3160
      3 N          59.2699   89.0760   10.0594 N.am    1  UNL1       -0.1720
      4 C          60.1950   88.0283    9.5146 C.ar    1  UNL1        0.0775
      5 C          59.6624   86.9512    8.6168 C.ar    1  UNL1        0.0176
      6 C          60.5874   85.9036    8.0720 C.ar    1  UNL1        0.0127
      7 C          62.0450   85.9332    8.4250 C.ar    1  UNL1        0.0579
      8 CL         62.9701   84.8855    7.8801 Cl      1  UNL1       -0.0822
      9 C          62.5776   87.0104    9.3227 C.ar    1  UNL1        0.0165
     10 C          61.6526   88.0579    9.8675 C.ar    1  UNL1        0.0631
     11 C          62.1851   89.1352   10.7654 C.2     1  UNL1        0.2419
     12 N          63.5637   89.4191   11.2838 N.2     1  UNL1       -0.0302
     13 C          63.4907   90.6423   12.1490 C.2     1  UNL1        0.3765
     14 N          62.0670   91.1142   12.1653 N.2     1  UNL1       -0.0256
     15 C          61.2601   90.1828   11.3102 C.2     1  UNL1        0.2907
     16 C          64.6398   91.2813   12.8712 C.ar    1  UNL1        0.0989
     17 C          64.9701   90.8633   14.2733 C.ar    1  UNL1        0.0085
     18 C          66.1191   91.5023   14.9954 C.ar    1  UNL1        0.0003
     19 C          66.9378   92.5592   14.3153 C.ar    1  UNL1        0.0009
     20 C          66.6075   92.9772   12.9131 C.ar    1  UNL1        0.0116
     21 C          65.4585   92.3382   12.1911 C.ar    1  UNL1        0.0651
     22 CL         65.1281   92.7562   10.7888 Cl      1  UNL1       -0.0820
@<TRIPOS>BOND
     1     1     2    2
     2     2     3    1
     3     3     4    2
     4     4     5   ar
     5     5     6   ar
     6     6     7   ar
     7     7     8    1
     8     7     9   ar
     9     9    10   ar
    10    10    11    2
    11    11    12    1
    12    12    13    2
    13    13    16    1
    14    16    17   ar
    15    17    18   ar
    16    18    19   ar
    17    19    20   ar
    18    20    21   ar
    19    21    22    1
    20    13    14    1
    21    14    15    2
    22    15     2    1
    23    10     4   ar
    24    15    11    1
    25    21    16   ar
@<TRIPOS>MOLECULE
*****
 22 25 0 0 0
SMALL
GASTEIGER

@<TRIPOS>ATOM
      1 O          64.1260   90.2561   14.7493 O.2     1  UNL1       -0.2638
      2 C          63.4685   90.1746   13.4035 C.2     1  UNL1        0.3160
      3 N          62.3635   89.1882   13.1672 N.am    1  UNL1       -0.1720
      4 C          61.7059   89.1068   11.8214 C.ar    1  UNL1        0.0775
      5 C          60.6010   88.1203   11.5850 C.ar    1  UNL1        0.0176
      6 C          59.9435   88.0389   10.2393 C.ar    1  UNL1        0.0127
      7 C          60.3909   88.9440    9.1299 C.ar    1  UNL1        0.0579
      8 CL         59.7334   88.8626    7.7842 Cl      1  UNL1       -0.0822
      9 C          61.4959   89.9305    9.3663 C.ar    1  UNL1        0.0165
     10 C          62.1534   90.0119   10.7120 C.ar    1  UNL1        0.0631
     11 C          63.2584   90.9984   10.9485 C.2     1  UNL1        0.2419
     12 N          63.9076   92.0118   10.0533 N.2     1  UNL1       -0.0302
     13 C          64.9664   92.7196   10.8458 C.2     1  UNL1        0.3765
     14 N          64.9715   92.1435   12.2308 N.2     1  UNL1       -0.0256
     15 C          63.9159   91.0797   12.2942 C.2     1  UNL1        0.2907
     16 C          65.8627   93.8117   10.3418 C.ar    1  UNL1        0.0989
     17 C          65.4256   95.2436   10.4349 C.ar    1  UNL1        0.0085
     18 C          66.3219   96.3356    9.9309 C.ar    1  UNL1        0.0003
     19 C          67.6553   95.9958    9.3338 C.ar    1  UNL1        0.0009
     20 C          68.0924   94.5640    9.2407 C.ar    1  UNL1        0.0116
     21 C          67.1961   93.4719    9.7447 C.ar    1  UNL1        0.0651
     22 CL         67.6332   92.0400    9.6516 Cl      1  UNL1       -0.0820
@<TRIPOS>BOND
     1     1     2    2
     2     2     3    1
     3     3     4    2
     4     4     5   ar
     5     5     6   ar
     6     6     7   ar
     7     7     8    1
     8     7     9   ar
     9     9    10   ar
    10    10    11    2
    11    11    12    1
    12    12    13    2
    13    13    16    1
    14    16    17   ar
    15    17    18   ar
    16    18    19   ar
    17    19    20   ar
    18    20    21   ar
    19    21    22    1
    20    13    14    1
    21    14    15    2
    22    15     2    1
    23    10     4   ar
    24    15    11    1
    25    21    16   ar
@<TRIPOS>MOLECULE
*****
 22 25 0 0 0
SMALL
GASTEIGER

@<TRIPOS>ATOM
      1 O          64.9074   92.7942   10.1830 O.2     1  UNL1       -0.2638
      2 C          64.4295   91.9622   11.3360 C.2     1  UNL1        0.3160
      3 N          64.9277   92.2451   12.7223 N.am    1  UNL1       -0.1720
      4 C          64.4498   91.4130   13.8753 C.ar    1  UNL1        0.0775
      5 C          64.9480   91.6959   15.2616 C.ar    1  UNL1        0.0176
      6 C          64.4701   90.8639   16.4146 C.ar    1  UNL1        0.0127
      7 C          63.4940   89.7490   16.1812 C.ar    1  UNL1        0.0579
      8 CL         63.0161   88.9170   17.3343 Cl      1  UNL1       -0.0822
      9 C          62.9959   89.4662   14.7950 C.ar    1  UNL1        0.0165
     10 C          63.4737   90.2982   13.6420 C.ar    1  UNL1        0.0631
     11 C          62.9756   90.0154   12.2557 C.2     1  UNL1        0.2419
     12 N          62.0184   88.9908   11.7227 N.2     1  UNL1       -0.0302
     13 C          61.9047   89.1896   10.2403 C.2     1  UNL1        0.3765
     14 N          62.7916   90.3370    9.8571 N.2     1  UNL1       -0.0256
     15 C          63.4534   90.8474   11.1027 C.2     1  UNL1        0.2907
     16 C          61.0536   88.3826    9.3052 C.ar    1  UNL1        0.0989
     17 C          60.0001   89.0580    8.4781 C.ar    1  UNL1        0.0085
     18 C          59.1490   88.2510    7.5431 C.ar    1  UNL1        0.0003
     19 C          59.3513   86.7686    7.4351 C.ar    1  UNL1        0.0009
     20 C          60.4047   86.0932    8.2622 C.ar    1  UNL1        0.0116
     21 C          61.2559   86.9002    9.1973 C.ar    1  UNL1        0.0651
     22 CL         62.3093   86.2249   10.0244 Cl      1  UNL1       -0.0820
@<TRIPOS>BOND
     1     1     2    2
     2     2     3    1
     3     3     4    2
     4     4     5   ar
     5     5     6   ar
     6     6     7   ar
     7     7     8    1
     8     7     9   ar
     9     9    10   ar
    10    10    11    2
    11    11    12    1
    12    12    13    2
    13    13    16    1
    14    16    17   ar
    15    17    18   ar
    16    18    19   ar
    17    19    20   ar
    18    20    21   ar
    19    21    22    1
    20    13    14    1
    21    14    15    2
    22    15     2    1
    23    10     4   ar
    24    15    11    1
    25    21    16   ar
@<TRIPOS>MOLECULE
*****
 22 25 0 0 0
SMALL
GASTEIGER

@<TRIPOS>ATOM
      1 O          61.4443   88.7232    9.6619 O.2     1  UNL1       -0.2638
      2 C          62.0104   87.7159   10.6185 C.2     1  UNL1        0.3160
      3 N          61.7944   86.2509   10.3797 N.am    1  UNL1       -0.1720
      4 C          62.3605   85.2436   11.3363 C.ar    1  UNL1        0.0775
      5 C          62.1445   83.7786   11.0975 C.ar    1  UNL1        0.0176
      6 C          62.7106   82.7714   12.0540 C.ar    1  UNL1        0.0127
      7 C          63.4926   83.2292   13.2494 C.ar    1  UNL1        0.0579
      8 CL         64.0586   82.2218   14.2060 Cl      1  UNL1       -0.0822
      9 C          63.7085   84.6942   13.4882 C.ar    1  UNL1        0.0165
     10 C          63.1425   85.7014   12.5316 C.ar    1  UNL1        0.0631
     11 C          63.3584   87.1665   12.7704 C.2     1  UNL1        0.2419
     12 N          64.0813   87.9110   13.8535 N.2     1  UNL1       -0.0302
     13 C          63.9620   89.3784   13.5663 C.2     1  UNL1        0.3765
     14 N          63.1654   89.5407   12.3058 N.2     1  UNL1       -0.0256
     15 C          62.7924   88.1737   11.8139 C.2     1  UNL1        0.2907
     16 C          64.5382   90.4886   14.3944 C.ar    1  UNL1        0.0989
     17 C          65.6290   91.3530   13.8351 C.ar    1  UNL1        0.0085
     18 C          66.2051   92.4631   14.6632 C.ar    1  UNL1        0.0003
     19 C          65.6904   92.7087   16.0505 C.ar    1  UNL1        0.0009
     20 C          64.5996   91.8443   16.6098 C.ar    1  UNL1        0.0116
     21 C          64.0235   90.7342   15.7817 C.ar    1  UNL1        0.0651
     22 CL         62.9326   89.8697   16.3410 Cl      1  UNL1       -0.0820
@<TRIPOS>BOND
     1     1     2    2
     2     2     3    1
     3     3     4    2
     4     4     5   ar
     5     5     6   ar
     6     6     7   ar
     7     7     8    1
     8     7     9   ar
     9     9    10   ar
    10    10    11    2
    11    11    12    1
    12    12    13    2
    13    13    16    1
    14    16    17   ar
    15    17    18   ar
    16    18    19   ar
    17    19    20   ar
    18    20    21   ar
    19    21    22    1
    20    13    14    1
    21    14    15    2
    22    15     2    1
    23    10     4   ar
    24    15    11    1
    25    21    16   ar
