@<TRIPOS>MOLECULE
*****
 20 21 0 0 0
SMALL
GASTEIGER

@<TRIPOS>ATOM
      1 C          63.4969   83.7195   12.2329 C.ar    1  UNL1        0.1418
      2 C          63.9696   83.3169   10.8675 C.ar    1  UNL1        0.0371
      3 C          63.5249   84.0903    9.6616 C.ar    1  UNL1        0.0062
      4 C          62.6075   85.2662    9.8211 C.ar    1  UNL1        0.0380
      5 C          62.0057   86.2122    8.8246 C.ar    1  UNL1        0.0452
      6 C          61.1610   87.1995    9.5742 C.ar    1  UNL1        0.1983
      7 O          61.2408   86.8637   11.0340 O.2     1  UNL1       -0.4488
      8 C          62.1348   85.6688   11.1865 C.ar    1  UNL1        0.1485
      9 C          62.5795   84.8955   12.3924 C.ar    1  UNL1        0.0743
     10 C          60.3746   88.3249    8.9701 C.2     1  UNL1        0.2806
     11 O          60.1558   89.5889    9.7474 O.2     1  UNL1       -0.2668
     12 N          59.8071   88.1864    7.5885 N.am    1  UNL1       -0.2969
     13 H          59.9508   87.3567    7.0783 H       1  UNL1        0.1499
     14 C          59.0207   89.3117    6.9843 C.3     1  UNL1        0.1071
     15 C          59.5949   90.1011    5.8454 C.3     1  UNL1        0.0937
     16 N          58.7630   91.1457    5.1622 N.3     1  UNL1       -0.2689
     17 C          57.2661   91.0624    5.2110 C.3     1  UNL1        0.0897
     18 C          59.4279   92.2736    4.4302 C.3     1  UNL1        0.0897
     19 C          63.7567   83.5242   14.8105 C.3     1  UNL1        0.2525
     20 O          63.9415   82.9462   13.4388 O.3     1  UNL1       -0.4713
@<TRIPOS>BOND
     1    19    20    1
     2    20     1    1
     3     1     2   ar
     4     2     3   ar
     5     3     4   ar
     6     4     5   ar
     7     5     6   ar
     8     6    10    1
     9    10    11    2
    10    10    12   am
    11    12    14    1
    12    14    15    1
    13    15    16    1
    14    16    17    1
    15    16    18    1
    16     6     7   ar
    17     7     8   ar
    18     8     9   ar
    19     9     1   ar
    20     8     4   ar
    21    12    13    1
@<TRIPOS>MOLECULE
*****
 20 21 0 0 0
SMALL
GASTEIGER

@<TRIPOS>ATOM
      1 C          66.3828   92.9431   13.1483 C.ar    1  UNL1        0.1418
      2 C          66.3938   93.4766   11.7465 C.ar    1  UNL1        0.0371
      3 C          65.4028   92.9672   10.7423 C.ar    1  UNL1        0.0062
      4 C          64.4008   91.9243   11.1399 C.ar    1  UNL1        0.0380
      5 C          63.3098   91.2367   10.3737 C.ar    1  UNL1        0.0452
      6 C          62.6245   90.2783   11.3019 C.ar    1  UNL1        0.1983
      7 O          63.2919   90.3734   12.6419 O.2     1  UNL1       -0.4488
      8 C          64.3897   91.3907   12.5417 C.ar    1  UNL1        0.1485
      9 C          65.3807   91.9001   13.5459 C.ar    1  UNL1        0.0743
     10 C          61.4738   89.3820   10.9517 C.2     1  UNL1        0.2806
     11 O          60.5247   88.9276   12.0206 O.2     1  UNL1       -0.2668
     12 N          61.2722   88.9402    9.5325 N.am    1  UNL1       -0.2969
     13 H          61.8952   89.2384    8.8309 H       1  UNL1        0.1499
     14 C          60.1216   88.0440    9.1822 C.3     1  UNL1        0.1071
     15 C          60.3565   86.5829    8.9369 C.3     1  UNL1        0.0937
     16 N          61.5967   85.9239    9.4638 N.3     1  UNL1       -0.2689
     17 C          62.7025   85.5458    8.5234 C.3     1  UNL1        0.0897
     18 C          61.7310   85.6428   10.9311 C.3     1  UNL1        0.0897
     19 C          67.3259   92.9615   15.5691 C.3     1  UNL1        0.2525
     20 O          67.3738   93.4525   14.1525 O.3     1  UNL1       -0.4713
@<TRIPOS>BOND
     1    19    20    1
     2    20     1    1
     3     1     2   ar
     4     2     3   ar
     5     3     4   ar
     6     4     5   ar
     7     5     6   ar
     8     6    10    1
     9    10    11    2
    10    10    12   am
    11    12    14    1
    12    14    15    1
    13    15    16    1
    14    16    17    1
    15    16    18    1
    16     6     7   ar
    17     7     8   ar
    18     8     9   ar
    19     9     1   ar
    20     8     4   ar
    21    12    13    1
@<TRIPOS>MOLECULE
*****
 20 21 0 0 0
SMALL
GASTEIGER

@<TRIPOS>ATOM
      1 C          59.7304   88.6006    7.9533 C.ar    1  UNL1        0.1418
      2 C          60.3921   89.7155    8.7077 C.ar    1  UNL1        0.0371
      3 C          61.2940   89.4058    9.8655 C.ar    1  UNL1        0.0062
      4 C          61.5343   87.9812   10.2689 C.ar    1  UNL1        0.0380
      5 C          62.3660   87.3734   11.3593 C.ar    1  UNL1        0.0452
      6 C          62.2183   85.8828   11.2788 C.ar    1  UNL1        0.1983
      7 O          61.2954   85.5694   10.1387 O.2     1  UNL1       -0.4488
      8 C          60.8726   86.8663    9.5145 C.ar    1  UNL1        0.1485
      9 C          59.9707   87.1760    8.3567 C.ar    1  UNL1        0.0743
     10 C          62.8779   84.8815   12.1802 C.2     1  UNL1        0.2806
     11 O          63.5573   83.6790   11.5953 O.2     1  UNL1       -0.2668
     12 N          62.8579   85.0828   13.6665 N.am    1  UNL1       -0.2969
     13 H          62.4119   85.8721   14.0504 H       1  UNL1        0.1499
     14 C          63.5173   84.0815   14.5679 C.3     1  UNL1        0.1071
     15 C          62.7256   82.9333   15.1197 C.3     1  UNL1        0.0937
     16 N          62.5357   81.6909   14.3009 N.3     1  UNL1       -0.2689
     17 C          61.1649   81.1053   14.1333 C.3     1  UNL1        0.0897
     18 C          63.7166   81.0341   13.6496 C.3     1  UNL1        0.0897
     19 C          59.1206   90.0857    5.9106 C.3     1  UNL1        0.2525
     20 O          58.8284   88.9103    6.7955 O.3     1  UNL1       -0.4713
@<TRIPOS>BOND
     1    19    20    1
     2    20     1    1
     3     1     2   ar
     4     2     3   ar
     5     3     4   ar
     6     4     5   ar
     7     5     6   ar
     8     6    10    1
     9    10    11    2
    10    10    12   am
    11    12    14    1
    12    14    15    1
    13    15    16    1
    14    16    17    1
    15    16    18    1
    16     6     7   ar
    17     7     8   ar
    18     8     9   ar
    19     9     1   ar
    20     8     4   ar
    21    12    13    1
@<TRIPOS>MOLECULE
*****
 20 21 0 0 0
SMALL
GASTEIGER

@<TRIPOS>ATOM
      1 C          60.3959   88.0903    9.1113 C.ar    1  UNL1        0.1418
      2 C          60.8913   86.9231    9.9125 C.ar    1  UNL1        0.0371
      3 C          61.8714   87.1403   11.0270 C.ar    1  UNL1        0.0062
      4 C          62.3562   88.5248   11.3403 C.ar    1  UNL1        0.0380
      5 C          63.3136   89.0436   12.3718 C.ar    1  UNL1        0.0452
      6 C          63.4100   90.5315   12.2081 C.ar    1  UNL1        0.1983
      7 O          62.5121   90.9323   11.0754 O.2     1  UNL1       -0.4488
      8 C          61.8608   89.6920   10.5390 C.ar    1  UNL1        0.1485
      9 C          60.8806   89.4748    9.4245 C.ar    1  UNL1        0.0743
     10 C          64.2558   91.4563   13.0325 C.2     1  UNL1        0.2806
     11 O          64.0147   91.5781   14.5080 O.2     1  UNL1       -0.2668
     12 N          65.3427   92.2592   12.3813 N.am    1  UNL1       -0.2969
     13 H          65.5009   92.1793   11.4129 H       1  UNL1        0.1499
     14 C          66.1884   93.1839   13.2056 C.3     1  UNL1        0.1071
     15 C          67.4406   92.6752   13.8563 C.3     1  UNL1        0.0937
     16 N          67.6994   92.9564   15.3068 N.3     1  UNL1       -0.2689
     17 C          69.0268   93.5051   15.7391 C.3     1  UNL1        0.0897
     18 C          66.6309   92.6887   16.3250 C.3     1  UNL1        0.0897
     19 C          59.0222   86.4797    7.6050 C.3     1  UNL1        0.2525
     20 O          59.4157   87.8731    7.9967 O.3     1  UNL1       -0.4713
@<TRIPOS>BOND
     1    19    20    1
     2    20     1    1
     3     1     2   ar
     4     2     3   ar
     5     3     4   ar
     6     4     5   ar
     7     5     6   ar
     8     6    10    1
     9    10    11    2
    10    10    12   am
    11    12    14    1
    12    14    15    1
    13    15    16    1
    14    16    17    1
    15    16    18    1
    16     6     7   ar
    17     7     8   ar
    18     8     9   ar
    19     9     1   ar
    20     8     4   ar
    21    12    13    1
@<TRIPOS>MOLECULE
*****
 20 21 0 0 0
SMALL
GASTEIGER

@<TRIPOS>ATOM
      1 C          60.3631   87.7004    9.5808 C.ar    1  UNL1        0.1418
      2 C          60.9513   86.7429   10.5744 C.ar    1  UNL1        0.0371
      3 C          62.0210   87.2052   11.5189 C.ar    1  UNL1        0.0062
      4 C          62.5025   88.6249   11.4699 C.ar    1  UNL1        0.0380
      5 C          63.5359   89.3625   12.2685 C.ar    1  UNL1        0.0452
      6 C          63.5865   90.7758   11.7686 C.ar    1  UNL1        0.1983
      7 O          62.5842   90.9118   10.6609 O.2     1  UNL1       -0.4488
      8 C          61.9142   89.5824   10.4763 C.ar    1  UNL1        0.1485
      9 C          60.8446   89.1202    9.5318 C.ar    1  UNL1        0.0743
     10 C          64.4821   91.8625   12.2857 C.2     1  UNL1        0.2806
     11 O          64.6615   92.0467   13.7634 O.2     1  UNL1       -0.2668
     12 N          65.1981   92.7648   11.3249 N.am    1  UNL1       -0.2969
     13 H          65.0803   92.6438   10.3550 H       1  UNL1        0.1499
     14 C          66.0937   93.8513   11.8418 C.3     1  UNL1        0.1071
     15 C          66.2244   95.1394   11.0843 C.3     1  UNL1        0.0937
     16 N          67.1143   95.2137    9.8791 N.3     1  UNL1       -0.2689
     17 C          67.2141   96.4904    9.0980 C.3     1  UNL1        0.0897
     18 C          67.9044   94.0112    9.4549 C.3     1  UNL1        0.0897
     19 C          59.6209   86.2464    7.5597 C.3     1  UNL1        0.2525
     20 O          59.2934   87.2382    8.6363 O.3     1  UNL1       -0.4713
@<TRIPOS>BOND
     1    19    20    1
     2    20     1    1
     3     1     2   ar
     4     2     3   ar
     5     3     4   ar
     6     4     5   ar
     7     5     6   ar
     8     6    10    1
     9    10    11    2
    10    10    12   am
    11    12    14    1
    12    14    15    1
    13    15    16    1
    14    16    17    1
    15    16    18    1
    16     6     7   ar
    17     7     8   ar
    18     8     9   ar
    19     9     1   ar
    20     8     4   ar
    21    12    13    1
@<TRIPOS>MOLECULE
*****
 20 21 0 0 0
SMALL
GASTEIGER

@<TRIPOS>ATOM
      1 C          60.3616   86.5456    7.9077 C.ar    1  UNL1        0.1418
      2 C          59.6232   87.8127    7.5930 C.ar    1  UNL1        0.0371
      3 C          59.9017   89.0585    8.3807 C.ar    1  UNL1        0.0062
      4 C          60.9185   89.0371    9.4832 C.ar    1  UNL1        0.0380
      5 C          61.4015   90.1009   10.4239 C.ar    1  UNL1        0.0452
      6 C          62.4384   89.4912   11.3201 C.ar    1  UNL1        0.1983
      7 O          62.5963   88.0506   10.9333 O.2     1  UNL1       -0.4488
      8 C          61.6568   87.7699    9.7980 C.ar    1  UNL1        0.1485
      9 C          61.3784   86.5242    9.0103 C.ar    1  UNL1        0.0743
     10 C          63.1863   90.1982   12.4115 C.2     1  UNL1        0.2806
     11 O          62.9621   89.8148   13.8442 O.2     1  UNL1       -0.2668
     12 N          64.1582   91.2885   12.0701 N.am    1  UNL1       -0.2969
     13 H          64.3053   91.5401   11.1297 H       1  UNL1        0.1499
     14 C          64.9060   91.9954   13.1614 C.3     1  UNL1        0.1071
     15 C          65.9991   92.9630   12.8165 C.3     1  UNL1        0.0937
     16 N          66.3152   93.2565   11.3799 N.3     1  UNL1       -0.2689
     17 C          65.7124   94.4550   10.7089 C.3     1  UNL1        0.0897
     18 C          67.2342   92.3513   10.6141 C.3     1  UNL1        0.0897
     19 C          61.2073   84.5741    6.4422 C.3     1  UNL1        0.2525
     20 O          60.0831   85.2998    7.1200 O.3     1  UNL1       -0.4713
@<TRIPOS>BOND
     1    19    20    1
     2    20     1    1
     3     1     2   ar
     4     2     3   ar
     5     3     4   ar
     6     4     5   ar
     7     5     6   ar
     8     6    10    1
     9    10    11    2
    10    10    12   am
    11    12    14    1
    12    14    15    1
    13    15    16    1
    14    16    17    1
    15    16    18    1
    16     6     7   ar
    17     7     8   ar
    18     8     9   ar
    19     9     1   ar
    20     8     4   ar
    21    12    13    1
@<TRIPOS>MOLECULE
*****
 20 21 0 0 0
SMALL
GASTEIGER

@<TRIPOS>ATOM
      1 C          63.7559   84.0217   14.1132 C.ar    1  UNL1        0.1418
      2 C          63.1487   84.3352   12.7779 C.ar    1  UNL1        0.0371
      3 C          63.0464   85.7586   12.3161 C.ar    1  UNL1        0.0062
      4 C          63.5513   86.8686   13.1895 C.ar    1  UNL1        0.0380
      5 C          63.5848   88.3566   13.0030 C.ar    1  UNL1        0.0452
      6 C          64.2127   88.9627   14.2229 C.ar    1  UNL1        0.1983
      7 O          64.5673   87.8494   15.1635 O.2     1  UNL1       -0.4488
      8 C          64.1585   86.5551   14.5248 C.ar    1  UNL1        0.1485
      9 C          64.2608   85.1317   14.9866 C.ar    1  UNL1        0.0743
     10 C          64.4451   90.4255   14.4606 C.2     1  UNL1        0.2806
     11 O          63.4176   91.2395   15.1897 O.2     1  UNL1       -0.2668
     12 N          65.7052   91.0742   13.9691 N.am    1  UNL1       -0.2969
     13 H          66.3796   90.5399   13.4906 H       1  UNL1        0.1499
     14 C          65.9377   92.5368   14.2067 C.3     1  UNL1        0.1071
     15 C          66.9589   93.2757   13.3937 C.3     1  UNL1        0.0937
     16 N          66.6683   93.6277   11.9648 N.3     1  UNL1       -0.2689
     17 C          66.8518   92.6006   10.8871 C.3     1  UNL1        0.0897
     18 C          66.1943   95.0069   11.6136 C.3     1  UNL1        0.0897
     19 C          63.5945   81.4771   13.6140 C.3     1  UNL1        0.2525
     20 O          63.8582   82.5982   14.5750 O.3     1  UNL1       -0.4713
@<TRIPOS>BOND
     1    19    20    1
     2    20     1    1
     3     1     2   ar
     4     2     3   ar
     5     3     4   ar
     6     4     5   ar
     7     5     6   ar
     8     6    10    1
     9    10    11    2
    10    10    12   am
    11    12    14    1
    12    14    15    1
    13    15    16    1
    14    16    17    1
    15    16    18    1
    16     6     7   ar
    17     7     8   ar
    18     8     9   ar
    19     9     1   ar
    20     8     4   ar
    21    12    13    1
@<TRIPOS>MOLECULE
*****
 20 21 0 0 0
SMALL
GASTEIGER

@<TRIPOS>ATOM
      1 C          59.6562   88.6923    7.7065 C.ar    1  UNL1        0.1418
      2 C          60.2968   89.7546    8.5497 C.ar    1  UNL1        0.0371
      3 C          61.1442   89.3692    9.7259 C.ar    1  UNL1        0.0062
      4 C          61.3509   87.9213   10.0589 C.ar    1  UNL1        0.0380
      5 C          62.1277   87.2429   11.1481 C.ar    1  UNL1        0.0452
      6 C          61.9671   85.7612   10.9781 C.ar    1  UNL1        0.1983
      7 O          61.0912   85.5239    9.7838 O.2     1  UNL1       -0.4488
      8 C          60.7103   86.8590    9.2157 C.ar    1  UNL1        0.1485
      9 C          59.8630   87.2444    8.0396 C.ar    1  UNL1        0.0743
     10 C          62.5758   84.7027   11.8495 C.2     1  UNL1        0.2806
     11 O          63.4068   83.6141   11.2378 O.2     1  UNL1       -0.2668
     12 N          62.3533   84.7329   13.3326 N.am    1  UNL1       -0.2969
     13 H          61.8079   85.4474   13.7341 H       1  UNL1        0.1499
     14 C          62.9619   83.6745   14.2040 C.3     1  UNL1        0.1071
     15 C          63.8100   84.0656   15.3778 C.3     1  UNL1        0.0937
     16 N          63.9106   85.5061   15.7835 N.3     1  UNL1       -0.2689
     17 C          63.1099   86.0159   16.9450 C.3     1  UNL1        0.0897
     18 C          64.8119   86.4370   15.0278 C.3     1  UNL1        0.0897
     19 C          59.0977   90.3446    5.7810 C.3     1  UNL1        0.2525
     20 O          58.8088   89.0778    6.5304 O.3     1  UNL1       -0.4713
@<TRIPOS>BOND
     1    19    20    1
     2    20     1    1
     3     1     2   ar
     4     2     3   ar
     5     3     4   ar
     6     4     5   ar
     7     5     6   ar
     8     6    10    1
     9    10    11    2
    10    10    12   am
    11    12    14    1
    12    14    15    1
    13    15    16    1
    14    16    17    1
    15    16    18    1
    16     6     7   ar
    17     7     8   ar
    18     8     9   ar
    19     9     1   ar
    20     8     4   ar
    21    12    13    1
@<TRIPOS>MOLECULE
*****
 20 21 0 0 0
SMALL
GASTEIGER

@<TRIPOS>ATOM
      1 C          63.3794   82.9668   13.3511 C.ar    1  UNL1        0.1418
      2 C          62.7079   82.9325   12.0102 C.ar    1  UNL1        0.0371
      3 C          62.4028   84.2132   11.2913 C.ar    1  UNL1        0.0062
      4 C          62.7691   85.5281   11.9133 C.ar    1  UNL1        0.0380
      5 C          62.5952   86.9427   11.4457 C.ar    1  UNL1        0.0452
      6 C          63.1591   87.8512   12.4976 C.ar    1  UNL1        0.1983
      7 O          63.6816   86.9981   13.6153 O.2     1  UNL1       -0.4488
      8 C          63.4405   85.5623   13.2541 C.ar    1  UNL1        0.1485
      9 C          63.7456   84.2816   13.9730 C.ar    1  UNL1        0.0743
     10 C          63.1944   89.3498   12.4417 C.2     1  UNL1        0.2806
     11 O          62.1451   90.0965   11.6728 O.2     1  UNL1       -0.2668
     12 N          64.2791   90.1016   13.1546 N.am    1  UNL1       -0.2969
     13 H          64.9678   89.6115   13.6592 H       1  UNL1        0.1499
     14 C          64.3144   91.6001   13.0986 C.3     1  UNL1        0.1071
     15 C          65.5130   92.3014   12.5316 C.3     1  UNL1        0.0937
     16 N          66.6766   92.6335   13.4181 N.3     1  UNL1       -0.2689
     17 C          67.8827   91.7420   13.4380 C.3     1  UNL1        0.0897
     18 C          66.6341   93.8573   14.2846 C.3     1  UNL1        0.0897
     19 C          62.8336   80.4733   13.8355 C.3     1  UNL1        0.2525
     20 O          63.6845   81.6861   14.0700 O.3     1  UNL1       -0.4713
@<TRIPOS>BOND
     1    19    20    1
     2    20     1    1
     3     1     2   ar
     4     2     3   ar
     5     3     4   ar
     6     4     5   ar
     7     5     6   ar
     8     6    10    1
     9    10    11    2
    10    10    12   am
    11    12    14    1
    12    14    15    1
    13    15    16    1
    14    16    17    1
    15    16    18    1
    16     6     7   ar
    17     7     8   ar
    18     8     9   ar
    19     9     1   ar
    20     8     4   ar
    21    12    13    1
