@<TRIPOS>MOLECULE
*****
 27 29 0 0 0
SMALL
GASTEIGER

@<TRIPOS>ATOM
      1 C          65.8220   91.6866   13.6948 C.3     1  UNL1        0.0425
      2 C          65.7018   90.9438   14.9923 C.3     1  UNL1        0.0078
      3 C          64.7195   89.8178   15.1237 C.3     1  UNL1        0.0219
      4 C          63.8574   89.4347   13.9574 C.3     1  UNL1        0.0950
      5 N          63.9777   90.1775   12.6599 N.am    1  UNL1       -0.2636
      6 C          63.1156   89.7944   11.4936 C.2     1  UNL1        0.3077
      7 O          63.2359   90.5373   10.1961 O.2     1  UNL1       -0.2522
      8 N          62.1333   88.6684   11.6250 N.am    1  UNL1       -0.2681
      9 C          64.9599   91.3035   12.5285 C.3     1  UNL1        0.0992
     10 H          62.0544   88.1808   12.4766 H       1  UNL1        0.1564
     11 C          61.2714   88.2853   10.4587 C.ar    1  UNL1        0.0516
     12 C          60.5369   89.3433    9.6895 C.ar    1  UNL1        0.0156
     13 C          59.6750   88.9603    8.5232 C.ar    1  UNL1        0.0127
     14 C          59.5473   87.5194    8.1261 C.ar    1  UNL1        0.0578
     15 CL         58.6853   87.1364    6.9598 Cl      1  UNL1       -0.0822
     16 C          60.2817   86.4615    8.8953 C.ar    1  UNL1        0.0127
     17 C          61.1437   86.8445   10.0616 C.ar    1  UNL1        0.0156
     18 C          66.8498   92.4157   14.5085 C.ar    1  UNL1       -0.0208
     19 C          67.8082   91.6472   15.3692 C.ar    1  UNL1       -0.0042
     20 C          68.8359   92.3763   16.1829 C.ar    1  UNL1       -0.0003
     21 C          68.9053   93.8739   16.1359 C.ar    1  UNL1       -0.0000
     22 C          67.9469   94.6425   15.2752 C.ar    1  UNL1       -0.0003
     23 C          66.9192   93.9134   14.4615 C.ar    1  UNL1       -0.0042
     24 C          66.2992   92.6827   12.6798 C.3     1  UNL1        0.0474
     25 O          68.6030   91.6709   12.0328 O.co2   1  UNL1       -0.5492
     26 C          67.2877   92.2691   11.6302 C.2     1  UNL1        0.0507
     27 O          66.9609   92.4536   10.1778 O.co2   1  UNL1       -0.5492
@<TRIPOS>UNITY_ATOM_ATTR
25 1
charge -1
@<TRIPOS>BOND
     1    25    26   ar
     2    26    27   ar
     3    26    24    1
     4    24     1    1
     5     1    18    1
     6    18    19   ar
     7    19    20   ar
     8    20    21   ar
     9    21    22   ar
    10    22    23   ar
    11     1     2    1
    12     2     3    1
    13     3     4    1
    14     4     5    1
    15     5     6   am
    16     6     7    2
    17     6     8   am
    18     8    11    1
    19    11    12   ar
    20    12    13   ar
    21    13    14   ar
    22    14    15    1
    23    14    16   ar
    24    16    17   ar
    25     5     9    1
    26     9     1    1
    27    23    18   ar
    28    17    11   ar
    29     8    10    1
@<TRIPOS>MOLECULE
*****
 27 29 0 0 0
SMALL
GASTEIGER

@<TRIPOS>ATOM
      1 C          63.2668   83.2621   12.3058 C.3     1  UNL1        0.0425
      2 C          62.5985   83.5596   10.9963 C.3     1  UNL1        0.0078
      3 C          62.3278   84.9803   10.5982 C.3     1  UNL1        0.0219
      4 C          62.7254   86.1033   11.5096 C.3     1  UNL1        0.0950
      5 N          63.3937   85.8058   12.8191 N.am    1  UNL1       -0.2636
      6 C          63.7913   86.9289   13.7305 C.2     1  UNL1        0.3077
      7 O          64.4595   86.6312   15.0400 O.2     1  UNL1       -0.2522
      8 N          63.5205   88.3495   13.3324 N.am    1  UNL1       -0.2681
      9 C          63.6644   84.3851   13.2172 C.3     1  UNL1        0.0992
     10 H          63.0819   88.5448   12.4729 H       1  UNL1        0.1564
     11 C          63.9181   89.4725   14.2438 C.ar    1  UNL1        0.0516
     12 C          64.9714   90.4502   13.8139 C.ar    1  UNL1        0.0156
     13 C          65.3691   91.5732   14.7252 C.ar    1  UNL1        0.0127
     14 C          64.7135   91.7185   16.0666 C.ar    1  UNL1        0.0578
     15 CL         65.1112   92.8416   16.9780 Cl      1  UNL1       -0.0822
     16 C          63.6603   90.7408   16.4965 C.ar    1  UNL1        0.0127
     17 C          63.2626   89.6178   15.5851 C.ar    1  UNL1        0.0156
     18 C          63.0786   81.8674   11.7865 C.ar    1  UNL1       -0.0208
     19 C          62.6404   80.7741   12.7153 C.ar    1  UNL1       -0.0042
     20 C          62.4522   79.3795   12.1960 C.ar    1  UNL1       -0.0003
     21 C          62.7023   79.0782   10.7480 C.ar    1  UNL1       -0.0000
     22 C          63.1405   80.1715    9.8193 C.ar    1  UNL1       -0.0003
     23 C          63.3287   81.5661   10.3385 C.ar    1  UNL1       -0.0042
     24 C          63.8697   82.4801   13.4350 C.3     1  UNL1        0.0474
     25 O          62.1508   83.0479   15.2985 O.co2   1  UNL1       -0.5492
     26 C          63.5715   82.8615   14.8546 C.2     1  UNL1        0.0507
     27 O          64.6938   83.0565   15.8305 O.co2   1  UNL1       -0.5492
@<TRIPOS>UNITY_ATOM_ATTR
25 1
charge -1
@<TRIPOS>BOND
     1    25    26   ar
     2    26    27   ar
     3    26    24    1
     4    24     1    1
     5     1    18    1
     6    18    19   ar
     7    19    20   ar
     8    20    21   ar
     9    21    22   ar
    10    22    23   ar
    11     1     2    1
    12     2     3    1
    13     3     4    1
    14     4     5    1
    15     5     6   am
    16     6     7    2
    17     6     8   am
    18     8    11    1
    19    11    12   ar
    20    12    13   ar
    21    13    14   ar
    22    14    15    1
    23    14    16   ar
    24    16    17   ar
    25     5     9    1
    26     9     1    1
    27    23    18   ar
    28    17    11   ar
    29     8    10    1
@<TRIPOS>MOLECULE
*****
 27 29 0 0 0
SMALL
GASTEIGER

@<TRIPOS>ATOM
      1 C          63.9393   87.9483   14.6161 C.3     1  UNL1        0.0425
      2 C          63.8667   87.7073   16.0947 C.3     1  UNL1        0.0078
      3 C          63.6468   86.3190   16.6185 C.3     1  UNL1        0.0219
      4 C          63.4994   85.1717   15.6634 C.3     1  UNL1        0.0950
      5 N          63.5721   85.4127   14.1847 N.am    1  UNL1       -0.2636
      6 C          63.4247   84.2654   13.2297 C.2     1  UNL1        0.3077
      7 O          63.4974   84.5065   11.7510 O.2     1  UNL1       -0.2522
      8 N          63.2048   82.8771   13.7534 N.am    1  UNL1       -0.2681
      9 C          63.7920   86.8010   13.6610 C.3     1  UNL1        0.0992
     10 H          63.1571   82.7189   14.7240 H       1  UNL1        0.1564
     11 C          63.0575   81.7299   12.7984 C.ar    1  UNL1        0.0516
     12 C          63.3547   81.9245   11.3409 C.ar    1  UNL1        0.0156
     13 C          63.2074   80.7774   10.3859 C.ar    1  UNL1        0.0127
     14 C          62.7630   79.4356   10.8880 C.ar    1  UNL1        0.0578
     15 CL         62.6157   78.2884    9.9329 Cl      1  UNL1       -0.0822
     16 C          62.4658   79.2410   12.3453 C.ar    1  UNL1        0.0127
     17 C          62.6131   80.3882   13.3005 C.ar    1  UNL1        0.0156
     18 C          64.1355   89.3481   15.1181 C.ar    1  UNL1       -0.0208
     19 C          65.1826   90.2266   14.5002 C.ar    1  UNL1       -0.0042
     20 C          65.3788   91.6264   15.0022 C.ar    1  UNL1       -0.0003
     21 C          64.5278   92.1477   16.1221 C.ar    1  UNL1       -0.0000
     22 C          63.4807   91.2692   16.7399 C.ar    1  UNL1       -0.0003
     23 C          63.2846   89.8695   16.2379 C.ar    1  UNL1       -0.0042
     24 C          64.0801   88.6754   13.3116 C.3     1  UNL1        0.0474
     25 O          61.7245   89.7330   13.0244 O.co2   1  UNL1       -0.5492
     26 C          62.8696   88.9409   12.4666 C.2     1  UNL1        0.0507
     27 O          62.8042   88.4143   11.0635 O.co2   1  UNL1       -0.5492
@<TRIPOS>UNITY_ATOM_ATTR
25 1
charge -1
@<TRIPOS>BOND
     1    25    26   ar
     2    26    27   ar
     3    26    24    1
     4    24     1    1
     5     1    18    1
     6    18    19   ar
     7    19    20   ar
     8    20    21   ar
     9    21    22   ar
    10    22    23   ar
    11     1     2    1
    12     2     3    1
    13     3     4    1
    14     4     5    1
    15     5     6   am
    16     6     7    2
    17     6     8   am
    18     8    11    1
    19    11    12   ar
    20    12    13   ar
    21    13    14   ar
    22    14    15    1
    23    14    16   ar
    24    16    17   ar
    25     5     9    1
    26     9     1    1
    27    23    18   ar
    28    17    11   ar
    29     8    10    1
@<TRIPOS>MOLECULE
*****
 27 29 0 0 0
SMALL
GASTEIGER

@<TRIPOS>ATOM
      1 C          62.9434   84.2152   13.2498 C.3     1  UNL1        0.0425
      2 C          62.1104   84.1858   12.0028 C.3     1  UNL1        0.0078
      3 C          61.9297   85.4347   11.1919 C.3     1  UNL1        0.0219
      4 C          62.5821   86.7131   11.6282 C.3     1  UNL1        0.0950
      5 N          63.4151   86.7424   12.8753 N.am    1  UNL1       -0.2636
      6 C          64.0675   88.0208   13.3115 C.2     1  UNL1        0.3077
      7 O          64.9005   88.0501   14.5586 O.2     1  UNL1       -0.2522
      8 N          63.8868   89.2697   12.5007 N.am    1  UNL1       -0.2681
      9 C          63.5957   85.4935   13.6861 C.3     1  UNL1        0.0992
     10 H          63.3401   89.2505   11.6822 H       1  UNL1        0.1564
     11 C          64.5392   90.5480   12.9370 C.ar    1  UNL1        0.0516
     12 C          64.9312   90.7380   14.3725 C.ar    1  UNL1        0.0156
     13 C          65.5836   92.0162   14.8088 C.ar    1  UNL1        0.0127
     14 C          65.8440   93.1045   13.8099 C.ar    1  UNL1        0.0578
     15 CL         66.4965   94.3828   14.2463 Cl      1  UNL1       -0.0822
     16 C          65.4521   92.9145   12.3745 C.ar    1  UNL1        0.0127
     17 C          64.7997   91.6362   11.9381 C.ar    1  UNL1        0.0156
     18 C          62.5305   82.7730   13.2463 C.ar    1  UNL1       -0.0208
     19 C          61.5302   82.2768   14.2478 C.ar    1  UNL1       -0.0042
     20 C          61.1174   80.8348   14.2442 C.ar    1  UNL1       -0.0003
     21 C          61.7049   79.8890   13.2391 C.ar    1  UNL1       -0.0000
     22 C          62.7052   80.3852   12.2375 C.ar    1  UNL1       -0.0003
     23 C          63.1180   81.8272   12.2411 C.ar    1  UNL1       -0.0042
     24 C          63.6330   83.7437   14.4957 C.3     1  UNL1        0.0474
     25 O          64.7741   85.2867   16.2470 O.co2   1  UNL1       -0.5492
     26 C          63.5580   84.5626   15.7501 C.2     1  UNL1        0.0507
     27 O          62.2668   84.6576   16.5078 O.co2   1  UNL1       -0.5492
@<TRIPOS>UNITY_ATOM_ATTR
25 1
charge -1
@<TRIPOS>BOND
     1    25    26   ar
     2    26    27   ar
     3    26    24    1
     4    24     1    1
     5     1    18    1
     6    18    19   ar
     7    19    20   ar
     8    20    21   ar
     9    21    22   ar
    10    22    23   ar
    11     1     2    1
    12     2     3    1
    13     3     4    1
    14     4     5    1
    15     5     6   am
    16     6     7    2
    17     6     8   am
    18     8    11    1
    19    11    12   ar
    20    12    13   ar
    21    13    14   ar
    22    14    15    1
    23    14    16   ar
    24    16    17   ar
    25     5     9    1
    26     9     1    1
    27    23    18   ar
    28    17    11   ar
    29     8    10    1
@<TRIPOS>MOLECULE
*****
 27 29 0 0 0
SMALL
GASTEIGER

@<TRIPOS>ATOM
      1 C          61.0325   94.7632   -0.2971 C.3     1  UNL1        0.0425
      2 C          61.5217   93.6297   -1.1489 C.3     1  UNL1        0.0078
      3 C          60.6275   93.0410   -2.1996 C.3     1  UNL1        0.0219
      4 C          59.2442   93.5859   -2.3984 C.3     1  UNL1        0.0950
      5 N          58.7551   94.7195   -1.5466 N.am    1  UNL1       -0.2636
      6 C          57.3717   95.2644   -1.7454 C.2     1  UNL1        0.3077
      7 O          56.8826   96.3980   -0.8934 O.2     1  UNL1       -0.2522
      8 N          56.4776   94.6758   -2.7961 N.am    1  UNL1       -0.2681
      9 C          59.6492   95.3082   -0.4959 C.3     1  UNL1        0.0992
     10 H          56.7986   93.9317   -3.3552 H       1  UNL1        0.1564
     11 C          55.0943   95.2207   -2.9948 C.ar    1  UNL1        0.0516
     12 C          54.7003   95.8013   -4.3207 C.ar    1  UNL1        0.0156
     13 C          53.3171   96.3463   -4.5195 C.ar    1  UNL1        0.0127
     14 C          52.3278   96.3107   -3.3925 C.ar    1  UNL1        0.0578
     15 CL         50.9445   96.8557   -3.5913 Cl      1  UNL1       -0.0822
     16 C          52.7217   95.7302   -2.0667 C.ar    1  UNL1        0.0127
     17 C          54.1051   95.1852   -1.8679 C.ar    1  UNL1        0.0156
     18 C          62.4124   94.5913    0.2655 C.ar    1  UNL1       -0.0208
     19 C          62.8215   93.2763    0.8601 C.ar    1  UNL1       -0.0042
     20 C          64.2013   93.1044    1.4226 C.ar    1  UNL1       -0.0003
     21 C          65.1721   94.2475    1.3905 C.ar    1  UNL1       -0.0000
     22 C          64.7630   95.5624    0.7959 C.ar    1  UNL1       -0.0003
     23 C          63.3832   95.7343    0.2334 C.ar    1  UNL1       -0.0042
     24 C          61.0226   95.8371    0.7502 C.3     1  UNL1        0.0474
     25 O          59.6310   96.8523    2.6951 O.co2   1  UNL1       -0.5492
     26 C          60.2145   95.6574    2.0010 C.2     1  UNL1        0.0507
     27 O          59.9898   94.2828    2.5578 O.co2   1  UNL1       -0.5492
@<TRIPOS>UNITY_ATOM_ATTR
25 1
charge -1
@<TRIPOS>BOND
     1    25    26   ar
     2    26    27   ar
     3    26    24    1
     4    24     1    1
     5     1    18    1
     6    18    19   ar
     7    19    20   ar
     8    20    21   ar
     9    21    22   ar
    10    22    23   ar
    11     1     2    1
    12     2     3    1
    13     3     4    1
    14     4     5    1
    15     5     6   am
    16     6     7    2
    17     6     8   am
    18     8    11    1
    19    11    12   ar
    20    12    13   ar
    21    13    14   ar
    22    14    15    1
    23    14    16   ar
    24    16    17   ar
    25     5     9    1
    26     9     1    1
    27    23    18   ar
    28    17    11   ar
    29     8    10    1
@<TRIPOS>MOLECULE
*****
 27 29 0 0 0
SMALL
GASTEIGER

@<TRIPOS>ATOM
      1 C          56.2639   94.8880   -3.1076 C.3     1  UNL1        0.0425
      2 C          56.0186   96.2977   -2.6578 C.3     1  UNL1        0.0078
      3 C          56.7785   96.8557   -1.4911 C.3     1  UNL1        0.0219
      4 C          57.7837   96.0038   -0.7742 C.3     1  UNL1        0.0950
      5 N          58.0291   94.5941   -1.2240 N.am    1  UNL1       -0.2636
      6 C          59.0343   93.7422   -0.5072 C.2     1  UNL1        0.3077
      7 O          59.2796   92.3325   -0.9571 O.2     1  UNL1       -0.2522
      8 N          59.7942   94.3002    0.6595 N.am    1  UNL1       -0.2681
      9 C          57.2692   94.0361   -2.3907 C.3     1  UNL1        0.0992
     10 H          59.6332   95.2255    0.9548 H       1  UNL1        0.1564
     11 C          60.7994   93.4483    1.3763 C.ar    1  UNL1        0.0516
     12 C          60.4376   92.7959    2.6778 C.ar    1  UNL1        0.0156
     13 C          61.4428   91.9441    3.3946 C.ar    1  UNL1        0.0127
     14 C          62.8097   91.7445    2.8101 C.ar    1  UNL1        0.0578
     15 CL         63.8149   90.8926    3.5270 Cl      1  UNL1       -0.0822
     16 C          63.1715   92.3968    1.5087 C.ar    1  UNL1        0.0127
     17 C          62.1663   93.2487    0.7918 C.ar    1  UNL1        0.0156
     18 C          55.2176   95.2999   -4.1005 C.ar    1  UNL1       -0.0208
     19 C          55.5002   95.2052   -5.5706 C.ar    1  UNL1       -0.0042
     20 C          54.4539   95.6171   -6.5634 C.ar    1  UNL1       -0.0003
     21 C          53.1252   96.1237   -6.0861 C.ar    1  UNL1       -0.0000
     22 C          52.8426   96.2183   -4.6160 C.ar    1  UNL1       -0.0003
     23 C          53.8889   95.8064   -3.6232 C.ar    1  UNL1       -0.0042
     24 C          56.1459   93.6213   -3.9023 C.3     1  UNL1        0.0474
     25 O          56.9024   91.1383   -3.7922 O.co2   1  UNL1       -0.5492
     26 C          56.1496   92.2942   -3.2032 C.2     1  UNL1        0.0507
     27 O          55.4004   92.1230   -1.9150 O.co2   1  UNL1       -0.5492
@<TRIPOS>UNITY_ATOM_ATTR
25 1
charge -1
@<TRIPOS>BOND
     1    25    26   ar
     2    26    27   ar
     3    26    24    1
     4    24     1    1
     5     1    18    1
     6    18    19   ar
     7    19    20   ar
     8    20    21   ar
     9    21    22   ar
    10    22    23   ar
    11     1     2    1
    12     2     3    1
    13     3     4    1
    14     4     5    1
    15     5     6   am
    16     6     7    2
    17     6     8   am
    18     8    11    1
    19    11    12   ar
    20    12    13   ar
    21    13    14   ar
    22    14    15    1
    23    14    16   ar
    24    16    17   ar
    25     5     9    1
    26     9     1    1
    27    23    18   ar
    28    17    11   ar
    29     8    10    1
@<TRIPOS>MOLECULE
*****
 27 29 0 0 0
SMALL
GASTEIGER

@<TRIPOS>ATOM
      1 C          62.1215   88.1884   10.5022 C.3     1  UNL1        0.0425
      2 C          62.0600   86.8621   11.2001 C.3     1  UNL1        0.0078
      3 C          62.8229   86.6488   12.4739 C.3     1  UNL1        0.0219
      4 C          63.6472   87.7618   13.0498 C.3     1  UNL1        0.0950
      5 N          63.7087   89.0881   12.3519 N.am    1  UNL1       -0.2636
      6 C          64.5331   90.2012   12.9277 C.2     1  UNL1        0.3077
      7 O          64.5945   91.5275   12.2297 O.2     1  UNL1       -0.2522
      8 N          65.2959   89.9879   14.2015 N.am    1  UNL1       -0.2681
      9 C          62.9458   89.3014   11.0781 C.3     1  UNL1        0.0992
     10 H          65.2556   89.1174   14.6596 H       1  UNL1        0.1564
     11 C          66.1202   91.1009   14.7773 C.ar    1  UNL1        0.0516
     12 C          67.5106   91.3445   14.2697 C.ar    1  UNL1        0.0156
     13 C          68.3350   92.4575   14.8454 C.ar    1  UNL1        0.0127
     14 C          67.7690   93.3271   15.9287 C.ar    1  UNL1        0.0578
     15 CL         68.5934   94.4402   16.5045 Cl      1  UNL1       -0.0822
     16 C          66.3787   93.0836   16.4363 C.ar    1  UNL1        0.0127
     17 C          65.5543   91.9705   15.8606 C.ar    1  UNL1        0.0156
     18 C          61.2083   87.4465    9.5717 C.ar    1  UNL1       -0.0208
     19 C          59.7560   87.8136    9.4952 C.ar    1  UNL1       -0.0042
     20 C          58.8429   87.0717    8.5647 C.ar    1  UNL1       -0.0003
     21 C          59.3822   85.9627    7.7107 C.ar    1  UNL1       -0.0000
     22 C          60.8345   85.5956    7.7872 C.ar    1  UNL1       -0.0003
     23 C          61.7476   86.3375    8.7177 C.ar    1  UNL1       -0.0042
     24 C          61.8658   89.2570    9.4811 C.3     1  UNL1        0.0474
     25 O          62.8081   91.6713    9.6640 O.co2   1  UNL1       -0.5492
     26 C          61.7062   90.6845    9.9133 C.2     1  UNL1        0.0507
     27 O          60.4447   91.1252   10.5948 O.co2   1  UNL1       -0.5492
@<TRIPOS>UNITY_ATOM_ATTR
25 1
charge -1
@<TRIPOS>BOND
     1    25    26   ar
     2    26    27   ar
     3    26    24    1
     4    24     1    1
     5     1    18    1
     6    18    19   ar
     7    19    20   ar
     8    20    21   ar
     9    21    22   ar
    10    22    23   ar
    11     1     2    1
    12     2     3    1
    13     3     4    1
    14     4     5    1
    15     5     6   am
    16     6     7    2
    17     6     8   am
    18     8    11    1
    19    11    12   ar
    20    12    13   ar
    21    13    14   ar
    22    14    15    1
    23    14    16   ar
    24    16    17   ar
    25     5     9    1
    26     9     1    1
    27    23    18   ar
    28    17    11   ar
    29     8    10    1
@<TRIPOS>MOLECULE
*****
 27 29 0 0 0
SMALL
GASTEIGER

@<TRIPOS>ATOM
      1 C          65.7208   92.8929   12.0434 C.3     1  UNL1        0.0425
      2 C          66.4619   93.5906   13.1452 C.3     1  UNL1        0.0078
      3 C          66.5779   92.9475   14.4954 C.3     1  UNL1        0.0219
      4 C          65.9527   91.6068   14.7437 C.3     1  UNL1        0.0950
      5 N          65.2116   90.9092   13.6420 N.am    1  UNL1       -0.2636
      6 C          64.5864   89.5684   13.8903 C.2     1  UNL1        0.3077
      7 O          63.8453   88.8708   12.7885 O.2     1  UNL1       -0.2522
      8 N          64.7024   88.9254   15.2405 N.am    1  UNL1       -0.2681
      9 C          65.0956   91.5522   12.2918 C.3     1  UNL1        0.0992
     10 H          65.1888   89.3833   15.9637 H       1  UNL1        0.1564
     11 C          64.0772   87.5847   15.4888 C.ar    1  UNL1        0.0516
     12 C          63.1407   87.3965   16.6455 C.ar    1  UNL1        0.0156
     13 C          62.5156   86.0560   16.8938 C.ar    1  UNL1        0.0127
     14 C          62.8267   84.9034   15.9856 C.ar    1  UNL1        0.0578
     15 CL         62.2015   83.5627   16.2339 Cl      1  UNL1       -0.0822
     16 C          63.7632   85.0915   14.8290 C.ar    1  UNL1        0.0127
     17 C          64.3884   86.4322   14.5806 C.ar    1  UNL1        0.0156
     18 C          66.1390   94.1420   11.3257 C.ar    1  UNL1       -0.0208
     19 C          65.8526   95.4851   11.9290 C.ar    1  UNL1       -0.0042
     20 C          66.2708   96.7342   11.2113 C.ar    1  UNL1       -0.0003
     21 C          66.9754   96.6400    9.8905 C.ar    1  UNL1       -0.0000
     22 C          67.2618   95.2969    9.2873 C.ar    1  UNL1       -0.0003
     23 C          66.8436   94.0479   10.0049 C.ar    1  UNL1       -0.0042
     24 C          65.1249   92.6291   10.6923 C.3     1  UNL1        0.0474
     25 O          63.3501   91.3834    9.2611 O.co2   1  UNL1       -0.5492
     26 C          63.7963   91.9421   10.5798 C.2     1  UNL1        0.0507
     27 O          62.9137   91.8137   11.7859 O.co2   1  UNL1       -0.5492
@<TRIPOS>UNITY_ATOM_ATTR
25 1
charge -1
@<TRIPOS>BOND
     1    25    26   ar
     2    26    27   ar
     3    26    24    1
     4    24     1    1
     5     1    18    1
     6    18    19   ar
     7    19    20   ar
     8    20    21   ar
     9    21    22   ar
    10    22    23   ar
    11     1     2    1
    12     2     3    1
    13     3     4    1
    14     4     5    1
    15     5     6   am
    16     6     7    2
    17     6     8   am
    18     8    11    1
    19    11    12   ar
    20    12    13   ar
    21    13    14   ar
    22    14    15    1
    23    14    16   ar
    24    16    17   ar
    25     5     9    1
    26     9     1    1
    27    23    18   ar
    28    17    11   ar
    29     8    10    1
@<TRIPOS>MOLECULE
*****
 27 29 0 0 0
SMALL
GASTEIGER

@<TRIPOS>ATOM
      1 C          64.9365   91.6220   12.3686 C.3     1  UNL1        0.0425
      2 C          65.7488   92.0381   13.5589 C.3     1  UNL1        0.0078
      3 C          65.9334   91.0925   14.7086 C.3     1  UNL1        0.0219
      4 C          65.3057   89.7307   14.6678 C.3     1  UNL1        0.0950
      5 N          64.4934   89.3146   13.4775 N.am    1  UNL1       -0.2636
      6 C          63.8656   87.9529   13.4368 C.2     1  UNL1        0.3077
      7 O          63.0533   87.5369   12.2463 O.2     1  UNL1       -0.2522
      8 N          64.0502   87.0073   14.5864 N.am    1  UNL1       -0.2681
      9 C          64.3088   90.2603   12.3278 C.3     1  UNL1        0.0992
     10 H          64.5833   87.2803   15.3677 H       1  UNL1        0.1564
     11 C          63.4224   85.6456   14.5456 C.ar    1  UNL1        0.0516
     12 C          62.7986   85.0700   15.7825 C.ar    1  UNL1        0.0156
     13 C          62.1709   83.7084   15.7417 C.ar    1  UNL1        0.0127
     14 C          62.1668   82.9222   14.4642 C.ar    1  UNL1        0.0578
     15 CL         61.5390   81.5605   14.4234 Cl      1  UNL1       -0.0822
     16 C          62.7906   83.4978   13.2274 C.ar    1  UNL1        0.0127
     17 C          63.4184   84.8595   13.2681 C.ar    1  UNL1        0.0156
     18 C          65.3296   93.0062   11.9448 C.ar    1  UNL1       -0.0208
     19 C          66.0240   93.9181   12.9123 C.ar    1  UNL1       -0.0042
     20 C          66.4170   95.3022   12.4885 C.ar    1  UNL1       -0.0003
     21 C          66.1155   95.7745   11.0970 C.ar    1  UNL1       -0.0000
     22 C          65.4211   94.8626   10.1295 C.ar    1  UNL1       -0.0003
     23 C          65.0281   93.4785   10.5533 C.ar    1  UNL1       -0.0042
     24 C          64.2607   91.6866   11.0310 C.3     1  UNL1        0.0474
     25 O          63.0414   89.7934    9.7354 O.co2   1  UNL1       -0.5492
     26 C          63.0257   90.8748   10.7747 C.2     1  UNL1        0.0507
     27 O          61.7750   91.1445   11.5577 O.co2   1  UNL1       -0.5492
@<TRIPOS>UNITY_ATOM_ATTR
25 1
charge -1
@<TRIPOS>BOND
     1    25    26   ar
     2    26    27   ar
     3    26    24    1
     4    24     1    1
     5     1    18    1
     6    18    19   ar
     7    19    20   ar
     8    20    21   ar
     9    21    22   ar
    10    22    23   ar
    11     1     2    1
    12     2     3    1
    13     3     4    1
    14     4     5    1
    15     5     6   am
    16     6     7    2
    17     6     8   am
    18     8    11    1
    19    11    12   ar
    20    12    13   ar
    21    13    14   ar
    22    14    15    1
    23    14    16   ar
    24    16    17   ar
    25     5     9    1
    26     9     1    1
    27    23    18   ar
    28    17    11   ar
    29     8    10    1
