@<TRIPOS>MOLECULE
*****
 16 16 0 0 0
SMALL
GASTEIGER

@<TRIPOS>ATOM
      1 C          63.6744   83.5041   12.0659 C.ar    1  UNL1       -0.0221
      2 C          64.0776   83.1720   10.6598 C.ar    1  UNL1       -0.0030
      3 C          63.5622   83.9960    9.5173 C.ar    1  UNL1        0.0143
      4 C          62.6436   85.1521    9.7808 C.ar    1  UNL1        0.0495
      5 C          62.2404   85.4842   11.1869 C.ar    1  UNL1        0.0143
      6 C          62.7558   84.6602   12.3294 C.ar    1  UNL1       -0.0030
      7 N          62.1282   85.9761    8.6383 N.pl3   1  UNL1       -0.2930
      8 H          62.7267   86.2143    7.8938 H       1  UNL1        0.1538
      9 C          60.7008   86.4371    8.6300 C.2     1  UNL1        0.2056
     10 N          59.7694   85.9742    7.5493 N.2     1  UNL1       -0.0679
     11 O          58.3420   86.4353    7.5411 O.2     1  UNL1       -0.4077
     12 H          57.7601   86.1462    6.8660 H       1  UNL1        0.3278
     13 C          64.1899   82.6801   13.2084 C.3     1  UNL1        0.0264
     14 C          63.7225   81.2656   13.3837 C.3     1  UNL1        0.0047
     15 C          61.2273   81.1156   14.0920 C.3     1  UNL1        0.0000
     16 C          62.3023   80.9004   13.0682 C.3     1  UNL1        0.0003
@<TRIPOS>BOND
     1    15    16    1
     2    16    14    1
     3    14    13    1
     4    13     1    1
     5     1     2   ar
     6     2     3   ar
     7     3     4   ar
     8     4     7    1
     9     7     9    1
    10     9    10    2
    11    10    11    1
    12     4     5   ar
    13     5     6   ar
    14     6     1   ar
    15     7     8    1
    16    11    12    1
@<TRIPOS>MOLECULE
*****
 16 16 0 0 0
SMALL
GASTEIGER

@<TRIPOS>ATOM
      1 C          63.0089   84.8271    9.7636 C.ar    1  UNL1       -0.0221
      2 C          63.8335   83.5742    9.7497 C.ar    1  UNL1       -0.0030
      3 C          64.0357   82.7953   11.0156 C.ar    1  UNL1        0.0143
      4 C          63.4133   83.2693   12.2954 C.ar    1  UNL1        0.0495
      5 C          62.5887   84.5222   12.3093 C.ar    1  UNL1        0.0143
      6 C          62.3865   85.3011   11.0434 C.ar    1  UNL1       -0.0030
      7 N          63.6155   82.4904   13.5613 N.pl3   1  UNL1       -0.2930
      8 H          64.5263   82.3179   13.8929 H       1  UNL1        0.1538
      9 C          62.4301   81.9743   14.3218 C.2     1  UNL1        0.2056
     10 N          61.3846   81.1601   13.6189 N.2     1  UNL1       -0.0679
     11 O          60.1991   80.6441   14.3795 O.2     1  UNL1       -0.4077
     12 H          59.5460   80.1355   13.9405 H       1  UNL1        0.3278
     13 C          62.8067   85.6060    8.4978 C.3     1  UNL1        0.0264
     14 C          61.4578   85.6349    7.8423 C.3     1  UNL1        0.0047
     15 C          59.1213   86.7586    7.6751 C.3     1  UNL1        0.0000
     16 C          60.3282   86.3849    8.4837 C.3     1  UNL1        0.0003
@<TRIPOS>BOND
     1    15    16    1
     2    16    14    1
     3    14    13    1
     4    13     1    1
     5     1     2   ar
     6     2     3   ar
     7     3     4   ar
     8     4     7    1
     9     7     9    1
    10     9    10    2
    11    10    11    1
    12     4     5   ar
    13     5     6   ar
    14     6     1   ar
    15     7     8    1
    16    11    12    1
@<TRIPOS>MOLECULE
*****
 16 16 0 0 0
SMALL
GASTEIGER

@<TRIPOS>ATOM
      1 C          63.2126   84.5157   10.0912 C.ar    1  UNL1       -0.0221
      2 C          64.0943   83.3901   10.5445 C.ar    1  UNL1       -0.0030
      3 C          64.1973   83.0590   12.0039 C.ar    1  UNL1        0.0143
      4 C          63.4187   83.8536   13.0100 C.ar    1  UNL1        0.0495
      5 C          62.5371   84.9793   12.5567 C.ar    1  UNL1        0.0143
      6 C          62.4340   85.3103   11.0973 C.ar    1  UNL1       -0.0030
      7 N          63.5218   83.5225   14.4693 N.pl3   1  UNL1       -0.2930
      8 H          64.2667   82.9685   14.7970 H       1  UNL1        0.1538
      9 C          62.4898   84.0355   15.4295 C.2     1  UNL1        0.2056
     10 N          62.6730   85.3731   16.0833 N.2     1  UNL1       -0.0679
     11 O          61.6410   85.8861   17.0435 O.2     1  UNL1       -0.4077
     12 H          61.7553   86.7216   17.4520 H       1  UNL1        0.3278
     13 C          63.1096   84.8468    8.6319 C.3     1  UNL1        0.0264
     14 C          62.1768   85.9277    8.1720 C.3     1  UNL1        0.0047
     15 C          59.6535   86.4371    7.8205 C.3     1  UNL1        0.0000
     16 C          60.8504   85.5680    7.5709 C.3     1  UNL1        0.0003
@<TRIPOS>BOND
     1    15    16    1
     2    16    14    1
     3    14    13    1
     4    13     1    1
     5     1     2   ar
     6     2     3   ar
     7     3     4   ar
     8     4     7    1
     9     7     9    1
    10     9    10    2
    11    10    11    1
    12     4     5   ar
    13     5     6   ar
    14     6     1   ar
    15     7     8    1
    16    11    12    1
@<TRIPOS>MOLECULE
*****
 16 16 0 0 0
SMALL
GASTEIGER

@<TRIPOS>ATOM
      1 C          63.4255   83.7017   10.8092 C.ar    1  UNL1       -0.0221
      2 C          63.5031   84.2318    9.4082 C.ar    1  UNL1       -0.0030
      3 C          62.7711   85.4882    9.0401 C.ar    1  UNL1        0.0143
      4 C          61.9615   86.2146   10.0730 C.ar    1  UNL1        0.0495
      5 C          61.8839   85.6845   11.4740 C.ar    1  UNL1        0.0143
      6 C          62.6159   84.4280   11.8421 C.ar    1  UNL1       -0.0030
      7 N          61.2295   87.4710    9.7048 N.pl3   1  UNL1       -0.2930
      8 H          61.3133   87.8414    8.7965 H       1  UNL1        0.1538
      9 C          60.3698   88.1632   10.7206 C.2     1  UNL1        0.2056
     10 N          60.9928   89.0827   11.7288 N.2     1  UNL1       -0.0679
     11 O          60.1331   89.7749   12.7446 O.2     1  UNL1       -0.4077
     12 H          60.5223   90.3492   13.3744 H       1  UNL1        0.3278
     13 C          64.1575   82.4452   11.1774 C.3     1  UNL1        0.0264
     14 C          63.9405   81.8175   12.5223 C.3     1  UNL1        0.0047
     15 C          61.6768   81.1774   13.6252 C.3     1  UNL1        0.0000
     16 C          62.8236   80.8360   12.7204 C.3     1  UNL1        0.0003
@<TRIPOS>BOND
     1    15    16    1
     2    16    14    1
     3    14    13    1
     4    13     1    1
     5     1     2   ar
     6     2     3   ar
     7     3     4   ar
     8     4     7    1
     9     7     9    1
    10     9    10    2
    11    10    11    1
    12     4     5   ar
    13     5     6   ar
    14     6     1   ar
    15     7     8    1
    16    11    12    1
@<TRIPOS>MOLECULE
*****
 16 16 0 0 0
SMALL
GASTEIGER

@<TRIPOS>ATOM
      1 C          63.3101   84.0950   10.3154 C.ar    1  UNL1       -0.0221
      2 C          63.3086   84.6674    8.9290 C.ar    1  UNL1       -0.0030
      3 C          62.5256   85.9119    8.6322 C.ar    1  UNL1        0.0143
      4 C          61.7441   86.5840    9.7219 C.ar    1  UNL1        0.0495
      5 C          61.7455   86.0116   11.1083 C.ar    1  UNL1        0.0143
      6 C          62.5286   84.7671   11.4051 C.ar    1  UNL1       -0.0030
      7 N          60.9611   87.8285    9.4251 N.pl3   1  UNL1       -0.2930
      8 H          61.1254   88.6489    9.9439 H       1  UNL1        0.1538
      9 C          59.9277   87.8231    8.3378 C.2     1  UNL1        0.2056
     10 N          59.6619   89.0712    7.5495 N.2     1  UNL1       -0.0679
     11 O          58.6285   89.0657    6.4622 O.2     1  UNL1       -0.4077
     12 H          58.4624   89.8453    5.9697 H       1  UNL1        0.3278
     13 C          64.0931   82.8505   10.6122 C.3     1  UNL1        0.0264
     14 C          63.3839   81.5386   10.7729 C.3     1  UNL1        0.0047
     15 C          63.6525   81.2453   13.3404 C.3     1  UNL1        0.0000
     16 C          62.8080   81.1554   12.1039 C.3     1  UNL1        0.0003
@<TRIPOS>BOND
     1    15    16    1
     2    16    14    1
     3    14    13    1
     4    13     1    1
     5     1     2   ar
     6     2     3   ar
     7     3     4   ar
     8     4     7    1
     9     7     9    1
    10     9    10    2
    11    10    11    1
    12     4     5   ar
    13     5     6   ar
    14     6     1   ar
    15     7     8    1
    16    11    12    1
@<TRIPOS>MOLECULE
*****
 16 16 0 0 0
SMALL
GASTEIGER

@<TRIPOS>ATOM
      1 C          62.6068   85.2550    9.6823 C.ar    1  UNL1       -0.0221
      2 C          62.3583   85.4141   11.1530 C.ar    1  UNL1       -0.0030
      3 C          63.0414   84.5055   12.1317 C.ar    1  UNL1        0.0143
      4 C          63.9730   83.4378   11.6397 C.ar    1  UNL1        0.0495
      5 C          64.2215   83.2787   10.1690 C.ar    1  UNL1        0.0143
      6 C          63.5384   84.1873    9.1903 C.ar    1  UNL1       -0.0030
      7 N          64.6561   82.5292   12.6184 N.pl3   1  UNL1       -0.2930
      8 H          65.6237   82.6158   12.7779 H       1  UNL1        0.1538
      9 C          63.8650   81.4887   13.3541 C.2     1  UNL1        0.2056
     10 N          62.8277   80.6835   12.6289 N.2     1  UNL1       -0.0679
     11 O          62.0365   79.6429   13.3647 O.2     1  UNL1       -0.4077
     12 H          61.3886   79.1399   12.9117 H       1  UNL1        0.3278
     13 C          61.9237   86.1636    8.7036 C.3     1  UNL1        0.0264
     14 C          61.0349   87.2661    9.1980 C.3     1  UNL1        0.0047
     15 C          59.2861   88.2258    7.5334 C.3     1  UNL1        0.0000
     16 C          59.6184   87.3617    8.7137 C.3     1  UNL1        0.0003
@<TRIPOS>BOND
     1    15    16    1
     2    16    14    1
     3    14    13    1
     4    13     1    1
     5     1     2   ar
     6     2     3   ar
     7     3     4   ar
     8     4     7    1
     9     7     9    1
    10     9    10    2
    11    10    11    1
    12     4     5   ar
    13     5     6   ar
    14     6     1   ar
    15     7     8    1
    16    11    12    1
@<TRIPOS>MOLECULE
*****
 16 16 0 0 0
SMALL
GASTEIGER

@<TRIPOS>ATOM
      1 C          62.6587   89.4966   11.2403 C.ar    1  UNL1       -0.0221
      2 C          63.2336   89.5187   12.6255 C.ar    1  UNL1       -0.0030
      3 C          64.1652   90.6213   13.0334 C.ar    1  UNL1        0.0143
      4 C          64.5218   91.7018   12.0561 C.ar    1  UNL1        0.0495
      5 C          63.9469   91.6797   10.6708 C.ar    1  UNL1        0.0143
      6 C          63.0153   90.5771   10.2629 C.ar    1  UNL1       -0.0030
      7 N          65.4534   92.8045   12.4640 N.pl3   1  UNL1       -0.2930
      8 H          65.2435   93.7377   12.2308 H       1  UNL1        0.1538
      9 C          66.7047   92.4853   13.2270 C.2     1  UNL1        0.2056
     10 N          67.9500   92.0861   12.4922 N.2     1  UNL1       -0.0679
     11 O          69.2014   91.7669   13.2554 O.2     1  UNL1       -0.4077
     12 H          69.9793   91.5176   12.7964 H       1  UNL1        0.3278
     13 C          61.7271   88.3940   10.8324 C.3     1  UNL1        0.0264
     14 C          62.0742   87.5099    9.6714 C.3     1  UNL1        0.0047
     15 C          62.1514   85.3388   11.0964 C.3     1  UNL1        0.0000
     16 C          61.9070   86.0235    9.7843 C.3     1  UNL1        0.0003
@<TRIPOS>BOND
     1    15    16    1
     2    16    14    1
     3    14    13    1
     4    13     1    1
     5     1     2   ar
     6     2     3   ar
     7     3     4   ar
     8     4     7    1
     9     7     9    1
    10     9    10    2
    11    10    11    1
    12     4     5   ar
    13     5     6   ar
    14     6     1   ar
    15     7     8    1
    16    11    12    1
@<TRIPOS>MOLECULE
*****
 16 16 0 0 0
SMALL
GASTEIGER

@<TRIPOS>ATOM
      1 C          65.2308   92.2368   12.3160 C.ar    1  UNL1       -0.0221
      2 C          65.8201   91.8851   13.6497 C.ar    1  UNL1       -0.0030
      3 C          65.2868   90.7135   14.4198 C.ar    1  UNL1        0.0143
      4 C          64.1642   89.8937   13.8562 C.ar    1  UNL1        0.0495
      5 C          63.5749   90.2455   12.5225 C.ar    1  UNL1        0.0143
      6 C          64.1082   91.4171   11.7524 C.ar    1  UNL1       -0.0030
      7 N          63.6310   88.7222   14.6263 N.pl3   1  UNL1       -0.2930
      8 H          62.7541   88.7826   15.0698 H       1  UNL1        0.1538
      9 C          64.4337   87.4586   14.7208 C.2     1  UNL1        0.2056
     10 N          63.8233   86.1501   14.3145 N.2     1  UNL1       -0.0679
     11 O          64.6261   84.8865   14.4090 O.2     1  UNL1       -0.4077
     12 H          64.2448   84.0690   14.1553 H       1  UNL1        0.3278
     13 C          65.7640   93.4084   11.5459 C.3     1  UNL1        0.0264
     14 C          66.4973   93.1871   10.2562 C.3     1  UNL1        0.0047
     15 C          68.6679   92.3973    9.0668 C.3     1  UNL1        0.0000
     16 C          67.7222   92.3218   10.2287 C.3     1  UNL1        0.0003
@<TRIPOS>BOND
     1    15    16    1
     2    16    14    1
     3    14    13    1
     4    13     1    1
     5     1     2   ar
     6     2     3   ar
     7     3     4   ar
     8     4     7    1
     9     7     9    1
    10     9    10    2
    11    10    11    1
    12     4     5   ar
    13     5     6   ar
    14     6     1   ar
    15     7     8    1
    16    11    12    1
@<TRIPOS>MOLECULE
*****
 16 16 0 0 0
SMALL
GASTEIGER

@<TRIPOS>ATOM
      1 C          61.5914   86.4256    9.9697 C.ar    1  UNL1       -0.0221
      2 C          61.6668   85.8163   11.3382 C.ar    1  UNL1       -0.0030
      3 C          62.5516   84.6301   11.5833 C.ar    1  UNL1        0.0143
      4 C          63.3609   84.0532   10.4599 C.ar    1  UNL1        0.0495
      5 C          63.2855   84.6625    9.0913 C.ar    1  UNL1        0.0143
      6 C          62.4007   85.8487    8.8462 C.ar    1  UNL1       -0.0030
      7 N          64.2457   82.8670   10.7050 N.pl3   1  UNL1       -0.2930
      8 H          64.6889   82.4188    9.9487 H       1  UNL1        0.1538
      9 C          64.4553   82.3636   12.1023 C.2     1  UNL1        0.2056
     10 N          63.4861   81.3880   12.7014 N.2     1  UNL1       -0.0679
     11 O          63.6957   80.8847   14.0988 O.2     1  UNL1       -0.4077
     12 H          63.0902   80.2753   14.4730 H       1  UNL1        0.3278
     13 C          60.7066   87.6118    9.7246 C.3     1  UNL1        0.0264
     14 C          61.3107   88.9714    9.5337 C.3     1  UNL1        0.0047
     15 C          62.4885   89.3902   11.8114 C.3     1  UNL1        0.0000
     16 C          62.5307   89.3660   10.3121 C.3     1  UNL1        0.0003
@<TRIPOS>BOND
     1    15    16    1
     2    16    14    1
     3    14    13    1
     4    13     1    1
     5     1     2   ar
     6     2     3   ar
     7     3     4   ar
     8     4     7    1
     9     7     9    1
    10     9    10    2
    11    10    11    1
    12     4     5   ar
    13     5     6   ar
    14     6     1   ar
    15     7     8    1
    16    11    12    1
