@<TRIPOS>MOLECULE
*****
 29 33 0 0 0
SMALL
GASTEIGER

@<TRIPOS>ATOM
      1 N          63.7977   90.5357   14.0298 N.ar    1  UNL1       -0.3106
      2 C          63.3492   90.5378   12.5985 C.ar    1  UNL1        0.1215
      3 N          64.2749   91.4285   11.8240 N.ar    1  UNL1       -0.2309
      4 C          65.2956   91.9768   12.7767 C.ar    1  UNL1        0.0983
      5 C          66.4554   92.9071   12.5790 C.ar    1  UNL1        0.0206
      6 C          67.3203   93.2858   13.7446 C.ar    1  UNL1        0.0016
      7 C          67.0253   92.7340   15.1078 C.ar    1  UNL1        0.0016
      8 C          65.8655   91.8036   15.3056 C.ar    1  UNL1        0.0188
      9 C          65.0006   91.4250   14.1400 C.ar    1  UNL1        0.0789
     10 C          62.1802   89.7821   12.0397 C.3     1  UNL1        0.0729
     11 C          60.7978   90.0495   12.5567 C.3     1  UNL1        0.0103
     12 C          59.6288   89.2937   11.9979 C.3     1  UNL1        0.0178
     13 C          59.8422   88.2705   10.9221 C.3     1  UNL1        0.0721
     14 N          61.2246   88.0030   10.4051 N.3     1  UNL1       -0.2736
     15 C          62.3936   88.7588   10.9639 C.3     1  UNL1        0.0795
     16 C          61.4381   86.9798    9.3292 C.3     1  UNL1        0.0575
     17 C          60.3235   86.6416    8.3840 C.3     1  UNL1        0.0160
     18 C          60.5369   85.6184    7.3082 C.3     1  UNL1        0.0014
     19 C          61.8650   84.9333    7.1776 C.3     1  UNL1        0.0001
     20 C          62.9795   85.2714    8.1228 C.3     1  UNL1        0.0014
     21 C          62.7660   86.2947    9.1986 C.3     1  UNL1        0.0160
     22 C          63.1560   89.7774   15.1538 C.3     1  UNL1        0.1339
     23 F          64.3654   83.9504   15.9173 F       1  UNL1       -0.2042
     24 C          64.0631   85.4071   15.7264 C.ar    1  UNL1        0.1401
     25 C          63.3686   86.1773   16.8102 C.ar    1  UNL1        0.0294
     26 C          63.0662   87.6340   16.6193 C.ar    1  UNL1       -0.0001
     27 C          63.4583   88.3207   15.3446 C.ar    1  UNL1        0.0006
     28 C          64.1528   87.5505   14.2608 C.ar    1  UNL1       -0.0001
     29 C          64.4551   86.0938   14.4517 C.ar    1  UNL1        0.0294
@<TRIPOS>BOND
     1    23    24    1
     2    24    25   ar
     3    25    26   ar
     4    26    27   ar
     5    27    22    1
     6    22     1    1
     7     1     2   ar
     8     2    10    1
     9    10    11    1
    10    11    12    1
    11    12    13    1
    12    13    14    1
    13    14    16    1
    14    16    17    1
    15    17    18    1
    16    18    19    1
    17    19    20    1
    18    20    21    1
    19    14    15    1
    20     2     3   ar
    21     3     4   ar
    22     4     5   ar
    23     5     6   ar
    24     6     7   ar
    25     7     8   ar
    26     8     9   ar
    27    27    28   ar
    28    28    29   ar
    29    29    24   ar
    30     9     1   ar
    31    15    10    1
    32     9     4   ar
    33    21    16    1
@<TRIPOS>MOLECULE
*****
 29 33 0 0 0
SMALL
GASTEIGER

@<TRIPOS>ATOM
      1 N          63.6708   90.5022   13.0002 N.ar    1  UNL1       -0.3106
      2 C          64.4321   89.8757   14.1306 C.ar    1  UNL1        0.1215
      3 N          65.7661   90.5553   14.2238 N.ar    1  UNL1       -0.2309
      4 C          65.8292   91.6017   13.1510 C.ar    1  UNL1        0.0983
      5 C          66.8985   92.5803   12.7651 C.ar    1  UNL1        0.0206
      6 C          66.6729   93.5259   11.6229 C.ar    1  UNL1        0.0016
      7 C          65.3779   93.4931   10.8666 C.ar    1  UNL1        0.0016
      8 C          64.3086   92.5146   11.2525 C.ar    1  UNL1        0.0188
      9 C          64.5342   91.5689   12.3947 C.ar    1  UNL1        0.0789
     10 C          63.9450   88.7647   15.0129 C.3     1  UNL1        0.0729
     11 C          63.4613   89.0661   16.4004 C.3     1  UNL1        0.0103
     12 C          62.9742   87.9551   17.2827 C.3     1  UNL1        0.0178
     13 C          62.9707   86.5428   16.7775 C.3     1  UNL1        0.0721
     14 N          63.4544   86.2414   15.3901 N.3     1  UNL1       -0.2736
     15 C          63.9416   87.3524   14.5078 C.3     1  UNL1        0.0795
     16 C          63.4510   84.8290   14.8848 C.3     1  UNL1        0.0575
     17 C          64.5576   84.3488   13.9933 C.3     1  UNL1        0.0160
     18 C          64.5542   82.9365   13.4880 C.3     1  UNL1        0.0014
     19 C          63.4442   82.0043   13.8743 C.3     1  UNL1        0.0001
     20 C          62.3377   82.4846   14.7659 C.3     1  UNL1        0.0014
     21 C          62.3411   83.8970   15.2711 C.3     1  UNL1        0.0160
     22 C          62.2887   90.1277   12.5535 C.3     1  UNL1        0.1339
     23 F          61.5391   86.0563    8.2105 F       1  UNL1       -0.2042
     24 C          61.7265   87.0741    9.2963 C.ar    1  UNL1        0.1401
     25 C          61.2351   88.4779    9.1012 C.ar    1  UNL1        0.0294
     26 C          61.4226   89.4957   10.1870 C.ar    1  UNL1       -0.0001
     27 C          62.1013   89.1098   11.4678 C.ar    1  UNL1        0.0006
     28 C          62.5927   87.7061   11.6628 C.ar    1  UNL1       -0.0001
     29 C          62.4053   86.6882   10.5770 C.ar    1  UNL1        0.0294
@<TRIPOS>BOND
     1    23    24    1
     2    24    25   ar
     3    25    26   ar
     4    26    27   ar
     5    27    22    1
     6    22     1    1
     7     1     2   ar
     8     2    10    1
     9    10    11    1
    10    11    12    1
    11    12    13    1
    12    13    14    1
    13    14    16    1
    14    16    17    1
    15    17    18    1
    16    18    19    1
    17    19    20    1
    18    20    21    1
    19    14    15    1
    20     2     3   ar
    21     3     4   ar
    22     4     5   ar
    23     5     6   ar
    24     6     7   ar
    25     7     8   ar
    26     8     9   ar
    27    27    28   ar
    28    28    29   ar
    29    29    24   ar
    30     9     1   ar
    31    15    10    1
    32     9     4   ar
    33    21    16    1
@<TRIPOS>MOLECULE
*****
 29 33 0 0 0
SMALL
GASTEIGER

@<TRIPOS>ATOM
      1 N          61.7881   88.2123   10.5669 N.ar    1  UNL1       -0.3106
      2 C          62.1496   89.6578   10.3942 C.ar    1  UNL1        0.1215
      3 N          61.3510   90.2014    9.2467 N.ar    1  UNL1       -0.2309
      4 C          60.4960   89.0919    8.7102 C.ar    1  UNL1        0.0983
      5 C          59.5063   89.0421    7.5841 C.ar    1  UNL1        0.0206
      6 C          58.7868   87.7631    7.2740 C.ar    1  UNL1        0.0016
      7 C          59.0569   86.5337    8.0899 C.ar    1  UNL1        0.0016
      8 C          60.0466   86.5835    9.2160 C.ar    1  UNL1        0.0188
      9 C          60.7661   87.8625    9.5261 C.ar    1  UNL1        0.0789
     10 C          63.1364   90.4250   11.2234 C.3     1  UNL1        0.0729
     11 C          63.2011   90.2059   12.7059 C.3     1  UNL1        0.0103
     12 C          64.1879   90.9731   13.5351 C.3     1  UNL1        0.0178
     13 C          65.1101   91.9594   12.8818 C.3     1  UNL1        0.0721
     14 N          65.0454   92.1785   11.3994 N.3     1  UNL1       -0.2736
     15 C          64.0586   91.4113   10.5701 C.3     1  UNL1        0.0795
     16 C          65.9676   93.1649   10.7460 C.3     1  UNL1        0.0575
     17 C          67.1627   92.6805    9.9798 C.3     1  UNL1        0.0160
     18 C          68.0848   93.6668    9.3264 C.3     1  UNL1        0.0014
     19 C          67.8119   95.1374    9.4394 C.3     1  UNL1        0.0001
     20 C          66.6169   95.6218   10.2056 C.3     1  UNL1        0.0014
     21 C          65.6947   94.6355   10.8590 C.3     1  UNL1        0.0160
     22 C          62.3499   87.2802   11.5992 C.3     1  UNL1        0.1339
     23 F          63.7321   81.6349   10.1093 F       1  UNL1       -0.2042
     24 C          63.3866   83.0463   10.4817 C.ar    1  UNL1        0.1401
     25 C          63.0100   83.3781   11.8953 C.ar    1  UNL1        0.0294
     26 C          62.6645   84.7894   12.2677 C.ar    1  UNL1       -0.0001
     27 C          62.6954   85.8690   11.2267 C.ar    1  UNL1        0.0006
     28 C          63.0719   85.5370    9.8131 C.ar    1  UNL1       -0.0001
     29 C          63.4175   84.1257    9.4407 C.ar    1  UNL1        0.0294
@<TRIPOS>BOND
     1    23    24    1
     2    24    25   ar
     3    25    26   ar
     4    26    27   ar
     5    27    22    1
     6    22     1    1
     7     1     2   ar
     8     2    10    1
     9    10    11    1
    10    11    12    1
    11    12    13    1
    12    13    14    1
    13    14    16    1
    14    16    17    1
    15    17    18    1
    16    18    19    1
    17    19    20    1
    18    20    21    1
    19    14    15    1
    20     2     3   ar
    21     3     4   ar
    22     4     5   ar
    23     5     6   ar
    24     6     7   ar
    25     7     8   ar
    26     8     9   ar
    27    27    28   ar
    28    28    29   ar
    29    29    24   ar
    30     9     1   ar
    31    15    10    1
    32     9     4   ar
    33    21    16    1
@<TRIPOS>MOLECULE
*****
 29 33 0 0 0
SMALL
GASTEIGER

@<TRIPOS>ATOM
      1 N          63.5194   88.6793   12.3710 N.ar    1  UNL1       -0.3106
      2 C          63.4859   90.1230   11.9655 C.ar    1  UNL1        0.1215
      3 N          62.4025   90.2919   10.9419 N.ar    1  UNL1       -0.2309
      4 C          61.7665   88.9525   10.7148 C.ar    1  UNL1        0.0983
      5 C          60.6479   88.5117    9.8179 C.ar    1  UNL1        0.0206
      6 C          60.2197   87.0742    9.8042 C.ar    1  UNL1        0.0016
      7 C          60.9100   86.0776   10.6875 C.ar    1  UNL1        0.0016
      8 C          62.0285   86.5184   11.5844 C.ar    1  UNL1        0.0188
      9 C          62.4568   87.9559   11.5981 C.ar    1  UNL1        0.0789
     10 C          64.3790   91.2075   12.4912 C.3     1  UNL1        0.0729
     11 C          64.7197   91.2565   13.9511 C.3     1  UNL1        0.0103
     12 C          65.6128   92.3410   14.4769 C.3     1  UNL1        0.0178
     13 C          66.1651   93.3764   13.5427 C.3     1  UNL1        0.0721
     14 N          65.8243   93.3274   12.0827 N.3     1  UNL1       -0.2736
     15 C          64.9312   92.2430   11.5570 C.3     1  UNL1        0.0795
     16 C          66.3766   94.3629   11.1485 C.3     1  UNL1        0.0575
     17 C          66.1997   95.8205   11.4553 C.3     1  UNL1        0.0160
     18 C          66.7520   96.8560   10.5211 C.3     1  UNL1        0.0014
     19 C          67.4811   96.4339    9.2800 C.3     1  UNL1        0.0001
     20 C          67.6580   94.9763    8.9732 C.3     1  UNL1        0.0014
     21 C          67.1057   93.9408    9.9075 C.3     1  UNL1        0.0160
     22 C          64.4519   88.0665   13.3735 C.3     1  UNL1        0.1339
     23 F          62.4733   86.7076   18.8724 F       1  UNL1       -0.2042
     24 C          62.9679   87.0473   17.4977 C.ar    1  UNL1        0.1401
     25 C          62.9894   88.4757   17.0401 C.ar    1  UNL1        0.0294
     26 C          63.4840   88.8154   15.6653 C.ar    1  UNL1       -0.0001
     27 C          63.9573   87.7268   14.7482 C.ar    1  UNL1        0.0006
     28 C          63.9358   86.2985   15.2059 C.ar    1  UNL1       -0.0001
     29 C          63.4411   85.9588   16.5806 C.ar    1  UNL1        0.0294
@<TRIPOS>BOND
     1    23    24    1
     2    24    25   ar
     3    25    26   ar
     4    26    27   ar
     5    27    22    1
     6    22     1    1
     7     1     2   ar
     8     2    10    1
     9    10    11    1
    10    11    12    1
    11    12    13    1
    12    13    14    1
    13    14    16    1
    14    16    17    1
    15    17    18    1
    16    18    19    1
    17    19    20    1
    18    20    21    1
    19    14    15    1
    20     2     3   ar
    21     3     4   ar
    22     4     5   ar
    23     5     6   ar
    24     6     7   ar
    25     7     8   ar
    26     8     9   ar
    27    27    28   ar
    28    28    29   ar
    29    29    24   ar
    30     9     1   ar
    31    15    10    1
    32     9     4   ar
    33    21    16    1
@<TRIPOS>MOLECULE
*****
 29 33 0 0 0
SMALL
GASTEIGER

@<TRIPOS>ATOM
      1 N          63.4794   85.5728   12.9228 N.ar    1  UNL1       -0.3106
      2 C          62.5306   86.0288   11.8542 C.ar    1  UNL1        0.1215
      3 N          61.9787   84.8112   11.1740 N.ar    1  UNL1       -0.2309
      4 C          62.5864   83.6026   11.8221 C.ar    1  UNL1        0.0983
      5 C          62.4150   82.1343   11.5677 C.ar    1  UNL1        0.0206
      6 C          63.1711   81.1367   12.3942 C.ar    1  UNL1        0.0016
      7 C          64.0986   81.6074   13.4750 C.ar    1  UNL1        0.0016
      8 C          64.2700   83.0757   13.7294 C.ar    1  UNL1        0.0188
      9 C          63.5139   84.0733   12.9029 C.ar    1  UNL1        0.0789
     10 C          62.1930   87.4525   11.5239 C.3     1  UNL1        0.0729
     11 C          60.8564   87.7883   10.9316 C.3     1  UNL1        0.0103
     12 C          60.5188   89.2120   10.6013 C.3     1  UNL1        0.0178
     13 C          61.5177   90.2999   10.8633 C.3     1  UNL1        0.0721
     14 N          62.8543   89.9641   11.4556 N.3     1  UNL1       -0.2736
     15 C          63.1919   88.5404   11.7859 C.3     1  UNL1        0.0795
     16 C          63.8533   91.0519   11.7176 C.3     1  UNL1        0.0575
     17 C          64.2771   91.9647   10.6054 C.3     1  UNL1        0.0160
     18 C          65.2761   93.0526   10.8673 C.3     1  UNL1        0.0014
     19 C          65.8512   93.2277   12.2416 C.3     1  UNL1        0.0001
     20 C          65.4273   92.3149   13.3539 C.3     1  UNL1        0.0014
     21 C          64.4283   91.2270   13.0919 C.3     1  UNL1        0.0160
     22 C          64.2572   86.4603   13.8486 C.3     1  UNL1        0.1339
     23 F          62.3570   87.3290   19.4731 F       1  UNL1       -0.2042
     24 C          62.8320   87.1118   18.0670 C.ar    1  UNL1        0.1401
     25 C          63.1178   88.2886   17.1817 C.ar    1  UNL1        0.0294
     26 C          63.5929   88.0714   15.7756 C.ar    1  UNL1       -0.0001
     27 C          63.7821   86.6775   15.2547 C.ar    1  UNL1        0.0006
     28 C          63.4963   85.5008   16.1400 C.ar    1  UNL1       -0.0001
     29 C          63.0213   85.7180   17.5461 C.ar    1  UNL1        0.0294
@<TRIPOS>BOND
     1    23    24    1
     2    24    25   ar
     3    25    26   ar
     4    26    27   ar
     5    27    22    1
     6    22     1    1
     7     1     2   ar
     8     2    10    1
     9    10    11    1
    10    11    12    1
    11    12    13    1
    12    13    14    1
    13    14    16    1
    14    16    17    1
    15    17    18    1
    16    18    19    1
    17    19    20    1
    18    20    21    1
    19    14    15    1
    20     2     3   ar
    21     3     4   ar
    22     4     5   ar
    23     5     6   ar
    24     6     7   ar
    25     7     8   ar
    26     8     9   ar
    27    27    28   ar
    28    28    29   ar
    29    29    24   ar
    30     9     1   ar
    31    15    10    1
    32     9     4   ar
    33    21    16    1
@<TRIPOS>MOLECULE
*****
 29 33 0 0 0
SMALL
GASTEIGER

@<TRIPOS>ATOM
      1 N          61.3607   87.5216   10.8243 N.ar    1  UNL1       -0.3106
      2 C          62.1037   88.7853   11.1421 C.ar    1  UNL1        0.1215
      3 N          61.7401   89.8093   10.1081 N.ar    1  UNL1       -0.2309
      4 C          60.7723   89.1785    9.1512 C.ar    1  UNL1        0.0983
      5 C          60.0744   89.7089    7.9341 C.ar    1  UNL1        0.0206
      6 C          59.1419   88.8254    7.1596 C.ar    1  UNL1        0.0016
      7 C          58.9073   87.4115    7.6023 C.ar    1  UNL1        0.0016
      8 C          59.6053   86.8811    8.8194 C.ar    1  UNL1        0.0188
      9 C          60.5378   87.7646    9.5939 C.ar    1  UNL1        0.0789
     10 C          63.0451   88.9891   12.2920 C.3     1  UNL1        0.0729
     11 C          63.2406   87.8990   13.3036 C.3     1  UNL1        0.0103
     12 C          64.1819   88.1029   14.4535 C.3     1  UNL1        0.0178
     13 C          64.9279   89.3968   14.5918 C.3     1  UNL1        0.0721
     14 N          64.7324   90.4870   13.5802 N.3     1  UNL1       -0.2736
     15 C          63.7910   90.2831   12.4303 C.3     1  UNL1        0.0795
     16 C          65.4783   91.7810   13.7184 C.3     1  UNL1        0.0575
     17 C          65.5345   92.7410   12.5672 C.3     1  UNL1        0.0160
     18 C          66.2804   94.0350   12.7054 C.3     1  UNL1        0.0014
     19 C          66.9702   94.3691   13.9949 C.3     1  UNL1        0.0001
     20 C          66.9141   93.4091   15.1461 C.3     1  UNL1        0.0014
     21 C          66.1681   92.1150   15.0078 C.3     1  UNL1        0.0160
     22 C          61.4285   86.2399   11.6006 C.3     1  UNL1        0.1339
     23 F          64.9446   81.7644    9.7017 F       1  UNL1       -0.2042
     24 C          64.0656   82.8833   10.1764 C.ar    1  UNL1        0.1401
     25 C          63.5943   82.9144   11.6001 C.ar    1  UNL1        0.0294
     26 C          62.7153   84.0333   12.0748 C.ar    1  UNL1       -0.0001
     27 C          62.3075   85.1211   11.1259 C.ar    1  UNL1        0.0006
     28 C          62.7788   85.0899    9.7022 C.ar    1  UNL1       -0.0001
     29 C          63.6578   83.9710    9.2274 C.ar    1  UNL1        0.0294
@<TRIPOS>BOND
     1    23    24    1
     2    24    25   ar
     3    25    26   ar
     4    26    27   ar
     5    27    22    1
     6    22     1    1
     7     1     2   ar
     8     2    10    1
     9    10    11    1
    10    11    12    1
    11    12    13    1
    12    13    14    1
    13    14    16    1
    14    16    17    1
    15    17    18    1
    16    18    19    1
    17    19    20    1
    18    20    21    1
    19    14    15    1
    20     2     3   ar
    21     3     4   ar
    22     4     5   ar
    23     5     6   ar
    24     6     7   ar
    25     7     8   ar
    26     8     9   ar
    27    27    28   ar
    28    28    29   ar
    29    29    24   ar
    30     9     1   ar
    31    15    10    1
    32     9     4   ar
    33    21    16    1
@<TRIPOS>MOLECULE
*****
 29 33 0 0 0
SMALL
GASTEIGER

@<TRIPOS>ATOM
      1 N          62.4794   86.4835   10.3511 N.ar    1  UNL1       -0.3106
      2 C          62.2637   87.6539   11.2642 C.ar    1  UNL1        0.1215
      3 N          61.0363   88.3820   10.8023 N.ar    1  UNL1       -0.2309
      4 C          60.4934   87.6616    9.6039 C.ar    1  UNL1        0.0983
      5 C          59.3022   87.9225    8.7305 C.ar    1  UNL1        0.0206
      6 C          59.0028   87.0100    7.5783 C.ar    1  UNL1        0.0016
      7 C          59.8946   85.8366    7.2994 C.ar    1  UNL1        0.0016
      8 C          61.0859   85.5758    8.1728 C.ar    1  UNL1        0.0188
      9 C          61.3853   86.4883    9.3250 C.ar    1  UNL1        0.0789
     10 C          63.1244   88.0301   12.4337 C.3     1  UNL1        0.0729
     11 C          63.3695   87.0403   13.5337 C.3     1  UNL1        0.0103
     12 C          64.2301   87.4165   14.7032 C.3     1  UNL1        0.0178
     13 C          64.8457   88.7826   14.7727 C.3     1  UNL1        0.0721
     14 N          64.6006   89.7724   13.6727 N.3     1  UNL1       -0.2736
     15 C          63.7399   89.3962   12.5032 C.3     1  UNL1        0.0795
     16 C          65.2161   91.1386   13.7421 C.3     1  UNL1        0.0575
     17 C          65.7857   91.6396   15.0362 C.3     1  UNL1        0.0160
     18 C          66.4012   93.0057   15.1057 C.3     1  UNL1        0.0014
     19 C          66.4473   93.8708   13.8811 C.3     1  UNL1        0.0001
     20 C          65.8777   93.3698   12.5871 C.3     1  UNL1        0.0014
     21 C          65.2621   92.0036   12.5176 C.3     1  UNL1        0.0160
     22 C          63.5935   85.4838   10.4473 C.3     1  UNL1        0.1339
     23 F          62.5004   79.9640   12.5298 F       1  UNL1       -0.2042
     24 C          62.7737   81.3440   12.0092 C.ar    1  UNL1        0.1401
     25 C          63.3926   81.5257   10.6549 C.ar    1  UNL1        0.0294
     26 C          63.6659   82.9056   10.1344 C.ar    1  UNL1       -0.0001
     27 C          63.3203   84.1039   10.9679 C.ar    1  UNL1        0.0006
     28 C          62.7013   83.9221   12.3222 C.ar    1  UNL1       -0.0001
     29 C          62.4281   82.5421   12.8427 C.ar    1  UNL1        0.0294
@<TRIPOS>BOND
     1    23    24    1
     2    24    25   ar
     3    25    26   ar
     4    26    27   ar
     5    27    22    1
     6    22     1    1
     7     1     2   ar
     8     2    10    1
     9    10    11    1
    10    11    12    1
    11    12    13    1
    12    13    14    1
    13    14    16    1
    14    16    17    1
    15    17    18    1
    16    18    19    1
    17    19    20    1
    18    20    21    1
    19    14    15    1
    20     2     3   ar
    21     3     4   ar
    22     4     5   ar
    23     5     6   ar
    24     6     7   ar
    25     7     8   ar
    26     8     9   ar
    27    27    28   ar
    28    28    29   ar
    29    29    24   ar
    30     9     1   ar
    31    15    10    1
    32     9     4   ar
    33    21    16    1
@<TRIPOS>MOLECULE
*****
 29 33 0 0 0
SMALL
GASTEIGER

@<TRIPOS>ATOM
      1 N          63.3022   87.2250   12.8437 N.ar    1  UNL1       -0.3106
      2 C          63.1470   88.7144   12.9305 C.ar    1  UNL1        0.1215
      3 N          62.4800   89.1850   11.6721 N.ar    1  UNL1       -0.2309
      4 C          62.2230   87.9865   10.8076 C.ar    1  UNL1        0.0983
      5 C          61.5919   87.8417    9.4545 C.ar    1  UNL1        0.0206
      6 C          61.4689   86.4855    8.8256 C.ar    1  UNL1        0.0016
      7 C          61.9771   85.2741    9.5497 C.ar    1  UNL1        0.0016
      8 C          62.6082   85.4189   10.9027 C.ar    1  UNL1        0.0188
      9 C          62.7311   86.7751   11.5316 C.ar    1  UNL1        0.0789
     10 C          63.5824   89.5810   14.0749 C.3     1  UNL1        0.0729
     11 C          62.6921   89.7476   15.2705 C.3     1  UNL1        0.0103
     12 C          63.1274   90.6142   16.4148 C.3     1  UNL1        0.0178
     13 C          64.4531   91.3142   16.3635 C.3     1  UNL1        0.0721
     14 N          65.3434   91.1475   15.1679 N.3     1  UNL1       -0.2736
     15 C          64.9080   90.2809   14.0236 C.3     1  UNL1        0.0795
     16 C          66.6691   91.8475   15.1165 C.3     1  UNL1        0.0575
     17 C          67.6152   91.5797   13.9838 C.3     1  UNL1        0.0160
     18 C          68.9409   92.2795   13.9324 C.3     1  UNL1        0.0014
     19 C          69.3206   93.2473   15.0138 C.3     1  UNL1        0.0001
     20 C          68.3744   93.5151   16.1466 C.3     1  UNL1        0.0014
     21 C          67.0487   92.8151   16.1979 C.3     1  UNL1        0.0160
     22 C          63.9200   86.3406   13.8859 C.3     1  UNL1        0.1339
     23 F          62.8622   80.4350   13.8201 F       1  UNL1       -0.2042
     24 C          63.1266   81.9114   13.8366 C.ar    1  UNL1        0.1401
     25 C          64.2996   82.4716   13.0879 C.ar    1  UNL1        0.0294
     26 C          64.5640   83.9480   13.1044 C.ar    1  UNL1       -0.0001
     27 C          63.6556   84.8643   13.8695 C.ar    1  UNL1        0.0006
     28 C          62.4827   84.3040   14.6181 C.ar    1  UNL1       -0.0001
     29 C          62.2182   82.8276   14.6017 C.ar    1  UNL1        0.0294
@<TRIPOS>BOND
     1    23    24    1
     2    24    25   ar
     3    25    26   ar
     4    26    27   ar
     5    27    22    1
     6    22     1    1
     7     1     2   ar
     8     2    10    1
     9    10    11    1
    10    11    12    1
    11    12    13    1
    12    13    14    1
    13    14    16    1
    14    16    17    1
    15    17    18    1
    16    18    19    1
    17    19    20    1
    18    20    21    1
    19    14    15    1
    20     2     3   ar
    21     3     4   ar
    22     4     5   ar
    23     5     6   ar
    24     6     7   ar
    25     7     8   ar
    26     8     9   ar
    27    27    28   ar
    28    28    29   ar
    29    29    24   ar
    30     9     1   ar
    31    15    10    1
    32     9     4   ar
    33    21    16    1
@<TRIPOS>MOLECULE
*****
 29 33 0 0 0
SMALL
GASTEIGER

@<TRIPOS>ATOM
      1 N          62.8392   88.9085   11.9158 N.ar    1  UNL1       -0.3106
      2 C          63.2497   90.2264   11.3287 C.ar    1  UNL1        0.1215
      3 N          62.4831   90.4251   10.0548 N.ar    1  UNL1       -0.2309
      4 C          61.5988   89.2301    9.8546 C.ar    1  UNL1        0.0983
      5 C          60.6217   88.8744    8.7736 C.ar    1  UNL1        0.0206
      6 C          59.8647   87.5813    8.8428 C.ar    1  UNL1        0.0016
      7 C          60.0848   86.6440    9.9930 C.ar    1  UNL1        0.0016
      8 C          61.0619   86.9997   11.0740 C.ar    1  UNL1        0.0188
      9 C          61.8189   88.2928   11.0048 C.ar    1  UNL1        0.0789
     10 C          64.2509   91.1783   11.9129 C.3     1  UNL1        0.0729
     11 C          64.6853   91.0271   13.3406 C.3     1  UNL1        0.0103
     12 C          65.6865   91.9791   13.9248 C.3     1  UNL1        0.0178
     13 C          66.2534   93.0822   13.0813 C.3     1  UNL1        0.0721
     14 N          65.8191   93.2335   11.6536 N.3     1  UNL1       -0.2736
     15 C          64.8178   92.2815   11.0694 C.3     1  UNL1        0.0795
     16 C          66.3860   94.3367   10.8100 C.3     1  UNL1        0.0575
     17 C          66.9812   94.0250    9.4688 C.3     1  UNL1        0.0160
     18 C          67.5481   95.1282    8.6253 C.3     1  UNL1        0.0014
     19 C          67.5198   96.5430    9.1228 C.3     1  UNL1        0.0001
     20 C          66.9246   96.8547   10.4639 C.3     1  UNL1        0.0014
     21 C          66.3577   95.7515   11.3075 C.3     1  UNL1        0.0160
     22 C          63.3579   88.3112   13.1902 C.3     1  UNL1        0.1339
     23 F          64.4366   82.4182   13.5204 F       1  UNL1       -0.2042
     24 C          64.1669   83.8915   13.4379 C.ar    1  UNL1        0.1401
     25 C          63.3629   84.4441   12.2984 C.ar    1  UNL1        0.0294
     26 C          63.0932   85.9173   12.2159 C.ar    1  UNL1       -0.0001
     27 C          63.6276   86.8380   13.2728 C.ar    1  UNL1        0.0006
     28 C          64.4316   86.2854   14.4122 C.ar    1  UNL1       -0.0001
     29 C          64.7013   84.8121   14.4947 C.ar    1  UNL1        0.0294
@<TRIPOS>BOND
     1    23    24    1
     2    24    25   ar
     3    25    26   ar
     4    26    27   ar
     5    27    22    1
     6    22     1    1
     7     1     2   ar
     8     2    10    1
     9    10    11    1
    10    11    12    1
    11    12    13    1
    12    13    14    1
    13    14    16    1
    14    16    17    1
    15    17    18    1
    16    18    19    1
    17    19    20    1
    18    20    21    1
    19    14    15    1
    20     2     3   ar
    21     3     4   ar
    22     4     5   ar
    23     5     6   ar
    24     6     7   ar
    25     7     8   ar
    26     8     9   ar
    27    27    28   ar
    28    28    29   ar
    29    29    24   ar
    30     9     1   ar
    31    15    10    1
    32     9     4   ar
    33    21    16    1
