@<TRIPOS>MOLECULE
*****
 35 39 0 0 0
SMALL
GASTEIGER

@<TRIPOS>ATOM
      1 C          64.2981   86.4346   15.2733 C.3     1  UNL1        0.0730
      2 N          64.1457   85.3058   14.2973 N.3     1  UNL1       -0.2726
      3 C          64.6967   83.9201   14.4589 C.3     1  UNL1        0.0721
      4 C          64.3072   83.1225   13.2498 C.3     1  UNL1        0.0190
      5 C          63.5155   84.0153   12.3408 C.3     1  UNL1        0.0201
      6 C          63.2812   82.9860   11.2751 C.3     1  UNL1        0.0061
      7 C          62.7302   84.3717   11.1135 C.3     1  UNL1        0.0237
      8 C          63.4157   85.3647   12.9882 C.3     1  UNL1        0.0724
      9 C          61.9588   85.3776   10.3116 C.ar    1  UNL1       -0.0225
     10 C          62.0056   85.3371    8.8128 C.ar    1  UNL1       -0.0043
     11 C          61.2341   86.3430    8.0109 C.ar    1  UNL1        0.0035
     12 C          60.4159   87.3894    8.7078 C.ar    1  UNL1        0.0714
     13 C          60.3691   87.4299   10.2065 C.ar    1  UNL1        0.0035
     14 C          61.1406   86.4240   11.0084 C.ar    1  UNL1       -0.0043
     15 C          59.6445   88.3952    7.9059 C.3     1  UNL1        0.4186
     16 F          58.8730   89.4011    7.1039 F       1  UNL1       -0.1659
     17 F          60.2293   89.5023    8.7319 F       1  UNL1       -0.1659
     18 F          59.0597   87.2882    7.0798 F       1  UNL1       -0.1659
     19 C          64.3609   87.8497   14.7796 C.3     1  UNL1        0.0294
     20 C          63.8167   88.9636   15.6241 C.3     1  UNL1        0.0666
     21 S          63.3420   90.2314   14.9782 S.3     1  UNL1       -0.0756
     22 C          63.8358   91.0844   11.8672 C.3     1  UNL1        0.1340
     23 N          64.5639   91.6335   13.0582 N.ar    1  UNL1       -0.2884
     24 C          64.3369   91.2414   14.4881 C.ar    1  UNL1        0.1932
     25 N          65.2795   92.0366   15.3421 N.ar    1  UNL1       -0.1221
     26 N          66.0890   92.9202   14.4399 N.ar    1  UNL1       -0.1282
     27 C          65.6468   92.6711   13.0283 C.ar    1  UNL1        0.1670
     28 C          66.1917   93.3418   11.8023 C.ar    1  UNL1        0.0422
     29 C          65.9322   94.8004   11.5672 C.ar    1  UNL1        0.0219
     30 C          66.4771   95.4711   10.3412 C.ar    1  UNL1        0.0785
     31 N          67.2816   94.6831    9.3502 N.ar    1  UNL1       -0.2922
     32 C          67.8265   95.3538    8.1241 C.3     1  UNL1        0.1336
     33 C          67.5411   93.2245    9.5852 C.ar    1  UNL1        0.2611
     34 O          68.3455   92.4367    8.5942 O.2     1  UNL1       -0.2670
     35 C          66.9961   92.5539   10.8113 C.ar    1  UNL1        0.0638
@<TRIPOS>BOND
     1    22    23    1
     2    23    24   ar
     3    24    21    1
     4    21    20    1
     5    20    19    1
     6    19     1    1
     7     1     2    1
     8     2     3    1
     9     3     4    1
    10     5     4    1
    11     5     6    1
    12     6     7    1
    13     7     9    1
    14     9    10   ar
    15    10    11   ar
    16    11    12   ar
    17    12    15    1
    18    15    16    1
    19    15    17    1
    20    15    18    1
    21    12    13   ar
    22    13    14   ar
    23     5     8    1
    24    24    25   ar
    25    25    26   ar
    26    26    27   ar
    27    27    28    1
    28    28    29   ar
    29    29    30   ar
    30    30    31   ar
    31    31    32    1
    32    31    33   ar
    33    33    34    2
    34    33    35   ar
    35    27    23   ar
    36    35    28   ar
    37     8     2    1
    38     7     5    1
    39    14     9   ar
@<TRIPOS>MOLECULE
*****
 35 39 0 0 0
SMALL
GASTEIGER

@<TRIPOS>ATOM
      1 C          63.1670   82.5925   14.1835 C.3     1  UNL1        0.0730
      2 N          63.3795   82.8807   12.7268 N.3     1  UNL1       -0.2726
      3 C          64.1361   82.0200   11.7590 C.3     1  UNL1        0.0721
      4 C          64.0968   82.6876   10.4163 C.3     1  UNL1        0.0190
      5 C          63.3158   83.9608   10.5543 C.3     1  UNL1        0.0201
      6 C          63.4455   84.3806    9.1201 C.3     1  UNL1        0.0061
      7 C          62.6888   85.2412   10.0880 C.3     1  UNL1        0.0237
      8 C          62.8725   84.0802   11.9823 C.3     1  UNL1        0.0724
      9 C          61.8900   86.4773   10.3775 C.ar    1  UNL1       -0.0225
     10 C          62.4459   87.5340   11.2855 C.ar    1  UNL1       -0.0043
     11 C          61.6471   88.7701   11.5751 C.ar    1  UNL1        0.0035
     12 C          60.2923   88.9496   10.9567 C.ar    1  UNL1        0.0714
     13 C          59.7364   87.8929   10.0487 C.ar    1  UNL1        0.0035
     14 C          60.5352   86.6568    9.7591 C.ar    1  UNL1       -0.0043
     15 C          59.4935   90.1857   11.2462 C.3     1  UNL1        0.4186
     16 F          58.6946   91.4219   11.5358 F       1  UNL1       -0.1659
     17 F          58.8342   89.4894   12.3997 F       1  UNL1       -0.1659
     18 F          60.1527   90.8819   10.0927 F       1  UNL1       -0.1659
     19 C          63.6556   83.5617   15.2188 C.3     1  UNL1        0.0294
     20 C          62.7823   84.7027   15.6495 C.3     1  UNL1        0.0666
     21 S          63.2367   85.6236   16.7428 S.3     1  UNL1       -0.0756
     22 C          64.5822   86.9712   14.0927 C.3     1  UNL1        0.1340
     23 N          63.9957   87.7124   15.2575 N.ar    1  UNL1       -0.2884
     24 C          63.3772   87.0930   16.4756 C.ar    1  UNL1        0.1932
     25 N          62.9239   88.2008   17.3796 N.ar    1  UNL1       -0.1221
     26 N          63.2622   89.5049   16.7202 N.ar    1  UNL1       -0.1282
     27 C          63.9246   89.2031   15.4087 C.ar    1  UNL1        0.1670
     28 C          64.4276   90.2144   14.4216 C.ar    1  UNL1        0.0422
     29 C          63.6177   90.5389   13.2015 C.ar    1  UNL1        0.0219
     30 C          64.1207   91.5502   12.2144 C.ar    1  UNL1        0.0785
     31 N          65.4337   92.2370   12.4476 N.ar    1  UNL1       -0.2922
     32 C          65.9367   93.2483   11.4605 C.3     1  UNL1        0.1336
     33 C          66.2437   91.9125   13.6677 C.ar    1  UNL1        0.2611
     34 O          67.5567   92.5993   13.9007 O.2     1  UNL1       -0.2670
     35 C          65.7406   90.9012   14.6547 C.ar    1  UNL1        0.0638
@<TRIPOS>BOND
     1    22    23    1
     2    23    24   ar
     3    24    21    1
     4    21    20    1
     5    20    19    1
     6    19     1    1
     7     1     2    1
     8     2     3    1
     9     3     4    1
    10     5     4    1
    11     5     6    1
    12     6     7    1
    13     7     9    1
    14     9    10   ar
    15    10    11   ar
    16    11    12   ar
    17    12    15    1
    18    15    16    1
    19    15    17    1
    20    15    18    1
    21    12    13   ar
    22    13    14   ar
    23     5     8    1
    24    24    25   ar
    25    25    26   ar
    26    26    27   ar
    27    27    28    1
    28    28    29   ar
    29    29    30   ar
    30    30    31   ar
    31    31    32    1
    32    31    33   ar
    33    33    34    2
    34    33    35   ar
    35    27    23   ar
    36    35    28   ar
    37     8     2    1
    38     7     5    1
    39    14     9   ar
@<TRIPOS>MOLECULE
*****
 35 39 0 0 0
SMALL
GASTEIGER

@<TRIPOS>ATOM
      1 C          62.0021   86.4471    8.8540 C.3     1  UNL1        0.0730
      2 N          62.7106   85.2897    9.4931 N.3     1  UNL1       -0.2726
      3 C          63.2525   84.0857    8.7812 C.3     1  UNL1        0.0721
      4 C          63.8784   83.1850    9.8044 C.3     1  UNL1        0.0190
      5 C          63.7233   83.8323   11.1487 C.3     1  UNL1        0.0201
      6 C          64.4117   82.7489   11.9248 C.3     1  UNL1        0.0061
      7 C          63.8698   83.9529   12.6367 C.3     1  UNL1        0.0237
      8 C          63.0016   85.1331   10.9563 C.3     1  UNL1        0.0724
      9 C          63.6416   84.7177   13.9067 C.ar    1  UNL1       -0.0225
     10 C          62.6484   84.2191   14.9142 C.ar    1  UNL1       -0.0043
     11 C          62.4201   84.9838   16.1842 C.ar    1  UNL1        0.0035
     12 C          63.1850   86.2472   16.4468 C.ar    1  UNL1        0.0714
     13 C          64.1782   86.7457   15.4393 C.ar    1  UNL1        0.0035
     14 C          64.4065   85.9810   14.1692 C.ar    1  UNL1       -0.0043
     15 C          62.9567   87.0119   17.7168 C.3     1  UNL1        0.4186
     16 F          62.7284   87.7767   18.9869 F       1  UNL1       -0.1659
     17 F          62.4825   85.7567   18.3874 F       1  UNL1       -0.1659
     18 F          63.4310   88.2671   17.0463 F       1  UNL1       -0.1659
     19 C          60.5409   86.6671    9.1120 C.3     1  UNL1        0.0294
     20 C          60.0323   88.0448    9.4178 C.3     1  UNL1        0.0666
     21 S          60.9924   89.1923    9.5240 S.3     1  UNL1       -0.0756
     22 C          63.1803   91.5548   10.0545 C.3     1  UNL1        0.1340
     23 N          62.8289   90.4488   11.0050 N.ar    1  UNL1       -0.2884
     24 C          61.8232   89.3629   10.7612 C.ar    1  UNL1        0.1932
     25 N          61.7942   88.4776   11.9717 N.ar    1  UNL1       -0.1221
     26 N          62.7820   89.0163   12.9637 N.ar    1  UNL1       -0.1282
     27 C          63.4215   90.2346   12.3663 C.ar    1  UNL1        0.1670
     28 C          64.4695   91.0887   13.0161 C.ar    1  UNL1        0.0422
     29 C          64.8904   90.8143   14.4294 C.ar    1  UNL1        0.0219
     30 C          65.9384   91.6684   15.0792 C.ar    1  UNL1        0.0785
     31 N          66.5655   92.7970   14.3155 N.ar    1  UNL1       -0.2922
     32 C          67.6135   93.6511   14.9653 C.3     1  UNL1        0.1336
     33 C          66.1446   93.0714   12.9022 C.ar    1  UNL1        0.2611
     34 O          66.7718   94.2000   12.1386 O.2     1  UNL1       -0.2670
     35 C          65.0966   92.2172   12.2525 C.ar    1  UNL1        0.0638
@<TRIPOS>BOND
     1    22    23    1
     2    23    24   ar
     3    24    21    1
     4    21    20    1
     5    20    19    1
     6    19     1    1
     7     1     2    1
     8     2     3    1
     9     3     4    1
    10     5     4    1
    11     5     6    1
    12     6     7    1
    13     7     9    1
    14     9    10   ar
    15    10    11   ar
    16    11    12   ar
    17    12    15    1
    18    15    16    1
    19    15    17    1
    20    15    18    1
    21    12    13   ar
    22    13    14   ar
    23     5     8    1
    24    24    25   ar
    25    25    26   ar
    26    26    27   ar
    27    27    28    1
    28    28    29   ar
    29    29    30   ar
    30    30    31   ar
    31    31    32    1
    32    31    33   ar
    33    33    34    2
    34    33    35   ar
    35    27    23   ar
    36    35    28   ar
    37     8     2    1
    38     7     5    1
    39    14     9   ar
@<TRIPOS>MOLECULE
*****
 35 39 0 0 0
SMALL
GASTEIGER

@<TRIPOS>ATOM
      1 C          64.7714   85.2784   14.6048 C.3     1  UNL1        0.0730
      2 N          64.2151   86.4813   15.3073 N.3     1  UNL1       -0.2726
      3 C          63.4678   86.4756   16.6079 C.3     1  UNL1        0.0721
      4 C          63.0994   87.8920   16.9369 C.3     1  UNL1        0.0190
      5 C          63.6190   88.7730   15.8397 C.3     1  UNL1        0.0201
      6 C          63.1202   90.0614   16.4237 C.3     1  UNL1        0.0061
      7 C          63.8675   90.0671   15.1231 C.3     1  UNL1        0.0237
      8 C          64.3086   87.9011   14.8325 C.3     1  UNL1        0.0724
      9 C          64.4424   90.8175   13.9585 C.ar    1  UNL1       -0.0225
     10 C          65.7532   91.5330   14.1005 C.ar    1  UNL1       -0.0043
     11 C          66.3281   92.2834   12.9359 C.ar    1  UNL1        0.0035
     12 C          65.5922   92.3184   11.6293 C.ar    1  UNL1        0.0714
     13 C          64.2815   91.6029   11.4873 C.ar    1  UNL1        0.0035
     14 C          63.7066   90.8525   12.6519 C.ar    1  UNL1       -0.0043
     15 C          66.1671   93.0688   10.4647 C.3     1  UNL1        0.4186
     16 F          66.7421   93.8193    9.3000 F       1  UNL1       -0.1659
     17 F          67.1298   91.9456   10.2162 F       1  UNL1       -0.1659
     18 F          65.2044   94.1919   10.7131 F       1  UNL1       -0.1659
     19 C          64.3349   83.9027   15.0135 C.3     1  UNL1        0.0294
     20 C          63.6285   83.0169   14.0304 C.3     1  UNL1        0.0666
     21 S          64.2913   82.6573   12.7338 S.3     1  UNL1       -0.0756
     22 C          62.1373   85.0965   12.4889 C.3     1  UNL1        0.1340
     23 N          62.9095   84.4854   11.3575 N.ar    1  UNL1       -0.2884
     24 C          63.8996   83.3642   11.4701 C.ar    1  UNL1        0.1932
     25 N          64.4293   83.0739   10.0970 N.ar    1  UNL1       -0.1221
     26 N          63.7665   84.0157    9.1359 N.ar    1  UNL1       -0.1282
     27 C          62.8273   84.8881    9.9149 C.ar    1  UNL1        0.1670
     28 C          61.9583   85.9727    9.3504 C.ar    1  UNL1        0.0422
     29 C          61.0027   85.6644    8.2361 C.ar    1  UNL1        0.0219
     30 C          60.1337   86.7489    7.6716 C.ar    1  UNL1        0.0785
     31 N          60.2206   88.1419    8.2215 N.ar    1  UNL1       -0.2922
     32 C          59.3517   89.2265    7.6570 C.3     1  UNL1        0.1336
     33 C          61.1763   88.4502    9.3358 C.ar    1  UNL1        0.2611
     34 O          61.2630   89.8431    9.8855 O.2     1  UNL1       -0.2670
     35 C          62.0452   87.3655    9.9002 C.ar    1  UNL1        0.0638
@<TRIPOS>BOND
     1    22    23    1
     2    23    24   ar
     3    24    21    1
     4    21    20    1
     5    20    19    1
     6    19     1    1
     7     1     2    1
     8     2     3    1
     9     3     4    1
    10     5     4    1
    11     5     6    1
    12     6     7    1
    13     7     9    1
    14     9    10   ar
    15    10    11   ar
    16    11    12   ar
    17    12    15    1
    18    15    16    1
    19    15    17    1
    20    15    18    1
    21    12    13   ar
    22    13    14   ar
    23     5     8    1
    24    24    25   ar
    25    25    26   ar
    26    26    27   ar
    27    27    28    1
    28    28    29   ar
    29    29    30   ar
    30    30    31   ar
    31    31    32    1
    32    31    33   ar
    33    33    34    2
    34    33    35   ar
    35    27    23   ar
    36    35    28   ar
    37     8     2    1
    38     7     5    1
    39    14     9   ar
@<TRIPOS>MOLECULE
*****
 35 39 0 0 0
SMALL
GASTEIGER

@<TRIPOS>ATOM
      1 C          63.2654   83.2427   15.4054 C.3     1  UNL1        0.0730
      2 N          63.6143   82.9168   13.9834 N.3     1  UNL1       -0.2726
      3 C          64.3933   81.7224   13.5183 C.3     1  UNL1        0.0721
      4 C          64.5058   81.7955   12.0243 C.3     1  UNL1        0.0190
      5 C          63.7963   83.0352   11.5661 C.3     1  UNL1        0.0201
      6 C          64.0690   82.8407   10.1040 C.3     1  UNL1        0.0061
      7 C          63.2900   84.0351   10.5692 C.3     1  UNL1        0.0237
      8 C          63.2453   83.7282   12.7770 C.3     1  UNL1        0.0724
      9 C          62.5478   85.3019   10.2622 C.ar    1  UNL1       -0.0225
     10 C          62.3126   85.7068    8.8371 C.ar    1  UNL1       -0.0043
     11 C          61.5704   86.9737    8.5302 C.ar    1  UNL1        0.0035
     12 C          61.0636   87.8357    9.6482 C.ar    1  UNL1        0.0714
     13 C          61.2989   87.4308   11.0733 C.ar    1  UNL1        0.0035
     14 C          62.0410   86.1639   11.3803 C.ar    1  UNL1       -0.0043
     15 C          60.3215   89.1026    9.3412 C.3     1  UNL1        0.4186
     16 F          59.5793   90.3695    9.0342 F       1  UNL1       -0.1659
     17 F          61.1715   89.8407   10.3325 F       1  UNL1       -0.1659
     18 F          59.4715   88.3644    8.3500 F       1  UNL1       -0.1659
     19 C          62.6770   84.5798   15.7458 C.3     1  UNL1        0.0294
     20 C          63.5601   85.6805   16.2545 C.3     1  UNL1        0.0666
     21 S          62.9551   86.8781   16.9249 S.3     1  UNL1       -0.0756
     22 C          64.2209   87.6149   14.0087 C.3     1  UNL1        0.1340
     23 N          63.8486   88.5951   15.0813 N.ar    1  UNL1       -0.2884
     24 C          63.2668   88.2564   16.4218 C.ar    1  UNL1        0.1932
     25 N          63.0514   89.5381   17.1708 N.ar    1  UNL1       -0.1221
     26 N          63.5001   90.6688   16.2933 N.ar    1  UNL1       -0.1282
     27 C          63.9928   90.0861   15.0019 C.ar    1  UNL1        0.1670
     28 C          64.5346   90.8586   13.8358 C.ar    1  UNL1        0.0422
     29 C          65.8536   91.5635   13.9509 C.ar    1  UNL1        0.0219
     30 C          66.3954   92.3360   12.7848 C.ar    1  UNL1        0.0785
     31 N          65.6180   92.4036   11.5037 N.ar    1  UNL1       -0.2922
     32 C          66.1598   93.1762   10.3376 C.3     1  UNL1        0.1336
     33 C          64.2990   91.6988   11.3887 C.ar    1  UNL1        0.2611
     34 O          63.5217   91.7664   10.1075 O.2     1  UNL1       -0.2670
     35 C          63.7572   90.9262   12.5548 C.ar    1  UNL1        0.0638
@<TRIPOS>BOND
     1    22    23    1
     2    23    24   ar
     3    24    21    1
     4    21    20    1
     5    20    19    1
     6    19     1    1
     7     1     2    1
     8     2     3    1
     9     3     4    1
    10     5     4    1
    11     5     6    1
    12     6     7    1
    13     7     9    1
    14     9    10   ar
    15    10    11   ar
    16    11    12   ar
    17    12    15    1
    18    15    16    1
    19    15    17    1
    20    15    18    1
    21    12    13   ar
    22    13    14   ar
    23     5     8    1
    24    24    25   ar
    25    25    26   ar
    26    26    27   ar
    27    27    28    1
    28    28    29   ar
    29    29    30   ar
    30    30    31   ar
    31    31    32    1
    32    31    33   ar
    33    33    34    2
    34    33    35   ar
    35    27    23   ar
    36    35    28   ar
    37     8     2    1
    38     7     5    1
    39    14     9   ar
@<TRIPOS>MOLECULE
*****
 35 39 0 0 0
SMALL
GASTEIGER

@<TRIPOS>ATOM
      1 C          61.7026   86.6677    8.9358 C.3     1  UNL1        0.0730
      2 N          62.4810   85.5176    9.5026 N.3     1  UNL1       -0.2726
      3 C          63.0483   84.3679    8.7239 C.3     1  UNL1        0.0721
      4 C          63.7468   83.4551    9.6877 C.3     1  UNL1        0.0190
      5 C          63.6112   84.0406   11.0621 C.3     1  UNL1        0.0201
      6 C          64.3712   82.9581   11.7694 C.3     1  UNL1        0.0061
      7 C          63.8040   84.1078   12.5481 C.3     1  UNL1        0.0237
      8 C          62.8289   85.3154   10.9477 C.3     1  UNL1        0.0724
      9 C          63.5877   84.8103   13.8556 C.ar    1  UNL1       -0.0225
     10 C          62.6101   84.2589   14.8507 C.ar    1  UNL1       -0.0043
     11 C          62.3939   84.9614   16.1582 C.ar    1  UNL1        0.0035
     12 C          63.1553   86.2155   16.4707 C.ar    1  UNL1        0.0714
     13 C          64.1329   86.7669   15.4756 C.ar    1  UNL1        0.0035
     14 C          64.3491   86.0644   14.1681 C.ar    1  UNL1       -0.0043
     15 C          62.9391   86.9180   17.7782 C.3     1  UNL1        0.4186
     16 F          62.7229   87.6206   19.0858 F       1  UNL1       -0.1659
     17 F          63.3795   88.2102   17.1567 F       1  UNL1       -0.1659
     18 F          62.4987   85.6258   18.3997 F       1  UNL1       -0.1659
     19 C          60.7769   87.4534    9.8166 C.3     1  UNL1        0.0294
     20 C          61.3269   88.2448   10.9661 C.3     1  UNL1        0.0666
     21 S          61.2665   89.7434   10.9420 S.3     1  UNL1       -0.0756
     22 C          63.0887   89.8686   13.6464 C.3     1  UNL1        0.1340
     23 N          63.3572   90.6050   12.3675 N.ar    1  UNL1       -0.2884
     24 C          62.5196   90.5474   11.1244 C.ar    1  UNL1        0.1932
     25 N          63.1552   91.4350   10.0957 N.ar    1  UNL1       -0.1221
     26 N          64.3855   92.0412   10.7030 N.ar    1  UNL1       -0.1282
     27 C          64.5104   91.5282   12.1071 C.ar    1  UNL1        0.1670
     28 C          65.5976   91.8772   13.0798 C.ar    1  UNL1        0.0422
     29 C          67.0210   91.9634   12.6146 C.ar    1  UNL1        0.0219
     30 C          68.1082   92.3124   13.5874 C.ar    1  UNL1        0.0785
     31 N          67.7718   92.5751   15.0254 N.ar    1  UNL1       -0.2922
     32 C          68.8590   92.9241   15.9982 C.3     1  UNL1        0.1336
     33 C          66.3484   92.4889   15.4906 C.ar    1  UNL1        0.2611
     34 O          66.0122   92.7517   16.9286 O.2     1  UNL1       -0.2670
     35 C          65.2613   92.1400   14.5178 C.ar    1  UNL1        0.0638
@<TRIPOS>BOND
     1    22    23    1
     2    23    24   ar
     3    24    21    1
     4    21    20    1
     5    20    19    1
     6    19     1    1
     7     1     2    1
     8     2     3    1
     9     3     4    1
    10     5     4    1
    11     5     6    1
    12     6     7    1
    13     7     9    1
    14     9    10   ar
    15    10    11   ar
    16    11    12   ar
    17    12    15    1
    18    15    16    1
    19    15    17    1
    20    15    18    1
    21    12    13   ar
    22    13    14   ar
    23     5     8    1
    24    24    25   ar
    25    25    26   ar
    26    26    27   ar
    27    27    28    1
    28    28    29   ar
    29    29    30   ar
    30    30    31   ar
    31    31    32    1
    32    31    33   ar
    33    33    34    2
    34    33    35   ar
    35    27    23   ar
    36    35    28   ar
    37     8     2    1
    38     7     5    1
    39    14     9   ar
@<TRIPOS>MOLECULE
*****
 35 39 0 0 0
SMALL
GASTEIGER

@<TRIPOS>ATOM
      1 C          63.5338   84.2110    9.1812 C.3     1  UNL1        0.0730
      2 N          63.4534   83.1773   10.2652 N.3     1  UNL1       -0.2726
      3 C          63.4292   81.6908   10.0658 C.3     1  UNL1        0.0721
      4 C          63.3439   81.0434   11.4162 C.3     1  UNL1        0.0190
      5 C          63.3152   82.1297   12.4501 C.3     1  UNL1        0.0201
      6 C          63.2322   81.2152   13.6362 C.3     1  UNL1        0.0061
      7 C          63.2563   82.7017   13.8356 C.3     1  UNL1        0.0237
      8 C          63.3829   83.4486   11.7387 C.3     1  UNL1        0.0724
      9 C          63.2362   83.8902   14.7505 C.ar    1  UNL1       -0.0225
     10 C          64.4208   84.8083   14.8135 C.ar    1  UNL1       -0.0043
     11 C          64.4007   85.9968   15.7285 C.ar    1  UNL1        0.0035
     12 C          63.1961   86.2671   16.5804 C.ar    1  UNL1        0.0714
     13 C          62.0115   85.3490   16.5174 C.ar    1  UNL1        0.0035
     14 C          62.0316   84.1605   15.6024 C.ar    1  UNL1       -0.0043
     15 C          63.1760   87.4556   17.4953 C.3     1  UNL1        0.4186
     16 F          63.1560   88.6441   18.4103 F       1  UNL1       -0.1659
     17 F          62.7721   86.5701   18.6367 F       1  UNL1       -0.1659
     18 F          63.5800   88.3411   16.3540 F       1  UNL1       -0.1659
     19 C          62.3139   84.9975    8.8028 C.3     1  UNL1        0.0294
     20 C          62.3383   86.4960    8.8651 C.3     1  UNL1        0.0666
     21 S          61.5497   87.2158    9.9186 S.3     1  UNL1       -0.0756
     22 C          63.3952   87.6092   12.5811 C.3     1  UNL1        0.1340
     23 N          62.8925   88.7038   11.6871 N.ar    1  UNL1       -0.2884
     24 C          62.0442   88.5230   10.4633 C.ar    1  UNL1        0.1932
     25 N          61.7772   89.8788    9.8799 N.ar    1  UNL1       -0.1221
     26 N          62.4605   90.8976   10.7431 N.ar    1  UNL1       -0.1282
     27 C          63.1498   90.1715   11.8601 C.ar    1  UNL1        0.1670
     28 C          63.9550   90.8022   12.9573 C.ar    1  UNL1        0.0422
     29 C          65.2685   91.4551   12.6435 C.ar    1  UNL1        0.0219
     30 C          66.0736   92.0858   13.7407 C.ar    1  UNL1        0.0785
     31 N          65.5653   92.0635   15.1518 N.ar    1  UNL1       -0.2922
     32 C          66.3705   92.6942   16.2490 C.3     1  UNL1        0.1336
     33 C          64.2518   91.4106   15.4657 C.ar    1  UNL1        0.2611
     34 O          63.7436   91.3884   16.8767 O.2     1  UNL1       -0.2670
     35 C          63.4467   90.7799   14.3684 C.ar    1  UNL1        0.0638
@<TRIPOS>BOND
     1    22    23    1
     2    23    24   ar
     3    24    21    1
     4    21    20    1
     5    20    19    1
     6    19     1    1
     7     1     2    1
     8     2     3    1
     9     3     4    1
    10     5     4    1
    11     5     6    1
    12     6     7    1
    13     7     9    1
    14     9    10   ar
    15    10    11   ar
    16    11    12   ar
    17    12    15    1
    18    15    16    1
    19    15    17    1
    20    15    18    1
    21    12    13   ar
    22    13    14   ar
    23     5     8    1
    24    24    25   ar
    25    25    26   ar
    26    26    27   ar
    27    27    28    1
    28    28    29   ar
    29    29    30   ar
    30    30    31   ar
    31    31    32    1
    32    31    33   ar
    33    33    34    2
    34    33    35   ar
    35    27    23   ar
    36    35    28   ar
    37     8     2    1
    38     7     5    1
    39    14     9   ar
@<TRIPOS>MOLECULE
*****
 35 39 0 0 0
SMALL
GASTEIGER

@<TRIPOS>ATOM
      1 C          63.0873   85.0123    8.2976 C.3     1  UNL1        0.0730
      2 N          62.0085   86.0326    8.5103 N.3     1  UNL1       -0.2726
      3 C          60.5899   85.9281    8.0344 C.3     1  UNL1        0.0721
      4 C          59.8637   87.1675    8.4663 C.3     1  UNL1        0.0190
      5 C          60.8335   88.0379    9.2092 C.3     1  UNL1        0.0201
      6 C          59.8621   89.1436    9.4985 C.3     1  UNL1        0.0061
      7 C          61.2807   89.2481    9.9744 C.3     1  UNL1        0.0237
      8 C          62.1591   87.3365    9.2364 C.3     1  UNL1        0.0724
      9 C          62.3580   90.0071   10.6910 C.ar    1  UNL1       -0.0225
     10 C          63.0986   91.1042    9.9855 C.ar    1  UNL1       -0.0043
     11 C          64.1758   91.8632   10.7020 C.ar    1  UNL1        0.0035
     12 C          64.5125   91.5250   12.1241 C.ar    1  UNL1        0.0714
     13 C          63.7719   90.4278   12.8296 C.ar    1  UNL1        0.0035
     14 C          62.6946   89.6688   12.1130 C.ar    1  UNL1       -0.0043
     15 C          65.5897   92.2839   12.8406 C.3     1  UNL1        0.4186
     16 F          66.6670   93.0430   13.5572 F       1  UNL1       -0.1659
     17 F          65.8215   91.1060   13.7399 F       1  UNL1       -0.1659
     18 F          65.3579   93.4619   11.9414 F       1  UNL1       -0.1659
     19 C          63.7346   84.3482    9.4765 C.3     1  UNL1        0.0294
     20 C          63.6865   82.8555    9.6166 C.3     1  UNL1        0.0666
     21 S          63.2704   82.2374   10.9184 S.3     1  UNL1       -0.0756
     22 C          62.3015   85.1551   12.0129 C.3     1  UNL1        0.1340
     23 N          63.2329   84.2139   12.7176 N.ar    1  UNL1       -0.2884
     24 C          63.6783   82.8728   12.2145 C.ar    1  UNL1        0.1932
     25 N          64.6031   82.2785   13.2351 N.ar    1  UNL1       -0.1221
     26 N          64.7294   83.2524   14.3689 N.ar    1  UNL1       -0.1282
     27 C          63.8826   84.4485   14.0492 C.ar    1  UNL1        0.1670
     28 C          63.7148   85.6656   14.9098 C.ar    1  UNL1        0.0422
     29 C          64.1700   87.0051   14.4114 C.ar    1  UNL1        0.0219
     30 C          64.0023   88.2222   15.2721 C.ar    1  UNL1        0.0785
     31 N          63.3793   88.0995   16.6311 N.ar    1  UNL1       -0.2922
     32 C          63.2116   89.3166   17.4918 C.3     1  UNL1        0.1336
     33 C          62.9242   86.7600   17.1295 C.ar    1  UNL1        0.2611
     34 O          62.3013   86.6375   18.4885 O.2     1  UNL1       -0.2670
     35 C          63.0919   85.5430   16.2688 C.ar    1  UNL1        0.0638
@<TRIPOS>BOND
     1    22    23    1
     2    23    24   ar
     3    24    21    1
     4    21    20    1
     5    20    19    1
     6    19     1    1
     7     1     2    1
     8     2     3    1
     9     3     4    1
    10     5     4    1
    11     5     6    1
    12     6     7    1
    13     7     9    1
    14     9    10   ar
    15    10    11   ar
    16    11    12   ar
    17    12    15    1
    18    15    16    1
    19    15    17    1
    20    15    18    1
    21    12    13   ar
    22    13    14   ar
    23     5     8    1
    24    24    25   ar
    25    25    26   ar
    26    26    27   ar
    27    27    28    1
    28    28    29   ar
    29    29    30   ar
    30    30    31   ar
    31    31    32    1
    32    31    33   ar
    33    33    34    2
    34    33    35   ar
    35    27    23   ar
    36    35    28   ar
    37     8     2    1
    38     7     5    1
    39    14     9   ar
@<TRIPOS>MOLECULE
*****
 35 39 0 0 0
SMALL
GASTEIGER

@<TRIPOS>ATOM
      1 C          59.7580   89.3931   11.5765 C.3     1  UNL1        0.0730
      2 N          60.2128   88.6147   10.3777 N.3     1  UNL1       -0.2726
      3 C          60.0168   89.0094    8.9439 C.3     1  UNL1        0.0721
      4 C          60.6263   87.9435    8.0823 C.3     1  UNL1        0.0190
      5 C          61.1990   86.8900    8.9835 C.3     1  UNL1        0.0201
      6 C          61.7112   86.0057    7.8855 C.3     1  UNL1        0.0061
      7 C          61.9072   85.6110    9.3193 C.3     1  UNL1        0.0237
      8 C          60.9434   87.3048   10.4022 C.3     1  UNL1        0.0724
      9 C          62.4291   84.6447   10.3410 C.ar    1  UNL1       -0.0225
     10 C          62.1966   84.8985   11.8009 C.ar    1  UNL1       -0.0043
     11 C          62.7185   83.9322   12.8226 C.ar    1  UNL1        0.0035
     12 C          63.4731   82.7122   12.3843 C.ar    1  UNL1        0.0714
     13 C          63.7056   82.4584   10.9243 C.ar    1  UNL1        0.0035
     14 C          63.1837   83.4247    9.9026 C.ar    1  UNL1       -0.0043
     15 C          63.9951   81.7459   13.4059 C.3     1  UNL1        0.4186
     16 F          64.5171   80.7796   14.4277 F       1  UNL1       -0.1659
     17 F          63.4655   80.6013   12.5939 F       1  UNL1       -0.1659
     18 F          64.5246   82.8905   14.2179 F       1  UNL1       -0.1659
     19 C          60.7651   89.9153   12.5579 C.3     1  UNL1        0.0294
     20 C          62.2301   89.7076   12.3115 C.3     1  UNL1        0.0666
     21 S          63.2237   90.0186   13.3913 S.3     1  UNL1       -0.0756
     22 C          63.8486   91.5932   10.6022 C.3     1  UNL1        0.1340
     23 N          64.4799   91.8738   11.9336 N.ar    1  UNL1       -0.2884
     24 C          64.1927   91.1501   13.2156 C.ar    1  UNL1        0.1932
     25 N          65.0445   91.7564   14.2912 N.ar    1  UNL1       -0.1221
     26 N          65.8582   92.8549   13.6739 N.ar    1  UNL1       -0.1282
     27 C          65.5093   92.9276   12.2168 C.ar    1  UNL1        0.1670
     28 C          66.0882   93.8856   11.2183 C.ar    1  UNL1        0.0422
     29 C          65.9544   95.3642   11.4327 C.ar    1  UNL1        0.0219
     30 C          66.5332   96.3223   10.4342 C.ar    1  UNL1        0.0785
     31 N          67.2459   95.8016    9.2212 N.ar    1  UNL1       -0.2922
     32 C          67.8247   96.7597    8.2227 C.3     1  UNL1        0.1336
     33 C          67.3796   94.3231    9.0068 C.ar    1  UNL1        0.2611
     34 O          68.0923   93.8026    7.7938 O.2     1  UNL1       -0.2670
     35 C          66.8008   93.3651   10.0054 C.ar    1  UNL1        0.0638
@<TRIPOS>BOND
     1    22    23    1
     2    23    24   ar
     3    24    21    1
     4    21    20    1
     5    20    19    1
     6    19     1    1
     7     1     2    1
     8     2     3    1
     9     3     4    1
    10     5     4    1
    11     5     6    1
    12     6     7    1
    13     7     9    1
    14     9    10   ar
    15    10    11   ar
    16    11    12   ar
    17    12    15    1
    18    15    16    1
    19    15    17    1
    20    15    18    1
    21    12    13   ar
    22    13    14   ar
    23     5     8    1
    24    24    25   ar
    25    25    26   ar
    26    26    27   ar
    27    27    28    1
    28    28    29   ar
    29    29    30   ar
    30    30    31   ar
    31    31    32    1
    32    31    33   ar
    33    33    34    2
    34    33    35   ar
    35    27    23   ar
    36    35    28   ar
    37     8     2    1
    38     7     5    1
    39    14     9   ar
