@<TRIPOS>MOLECULE
*****
 35 38 0 0 0
SMALL
GASTEIGER

@<TRIPOS>ATOM
      1 N          62.8502   88.1020   12.0287 N.ar    1  UNL1       -0.2999
      2 C          63.1443   87.0037   13.0071 C.ar    1  UNL1        0.2039
      3 N          64.0156   87.5684   14.0897 N.ar    1  UNL1       -0.2135
      4 C          64.2599   89.0157   13.7805 C.ar    1  UNL1        0.0996
      5 C          65.0451   90.0758   14.4942 C.ar    1  UNL1        0.0206
      6 C          65.1102   91.4658   13.9341 C.ar    1  UNL1        0.0013
      7 C          64.3899   91.7956   12.6604 C.ar    1  UNL1       -0.0027
      8 C          63.6047   90.7355   11.9467 C.ar    1  UNL1       -0.0045
      9 C          62.8845   91.0653   10.6729 C.3     1  UNL1        0.0326
     10 C          63.5397   89.3455   12.5067 C.ar    1  UNL1        0.0758
     11 C          62.2539   85.1992    7.9416 C.2     1  UNL1        0.2492
     12 O          63.3875   84.4541    8.5816 O.2     1  UNL1       -0.2699
     13 N          61.6942   86.4245    8.6016 N.am    1  UNL1       -0.2742
     14 C          60.5631   87.0940    7.8789 C.3     1  UNL1        0.0938
     15 C          59.7982   88.3226    8.2731 C.3     1  UNL1        0.0216
     16 C          59.9754   89.1851    9.4875 C.3     1  UNL1        0.0037
     17 C          60.9613   89.0320   10.6075 C.3     1  UNL1        0.0245
     18 C          62.0136   87.9786   10.7899 C.3     1  UNL1        0.1078
     19 C          62.3397   86.8182    9.8972 C.3     1  UNL1        0.1162
     20 C          62.5884   84.4134    5.4879 C.2     1  UNL1        0.0048
     21 C          61.6798   84.7192    6.6416 C.2     1  UNL1        0.0579
     22 N          62.6534   85.5891   12.9183 N.am    1  UNL1       -0.2518
     23 C          63.5535   84.4566   13.3150 C.2     1  UNL1        0.2516
     24 O          64.9445   84.7387   13.8004 O.2     1  UNL1       -0.2697
     25 H          61.7405   85.4039   12.5998 H       1  UNL1        0.1580
     26 C          63.0626   83.0420   13.2263 C.ar    1  UNL1        0.0537
     27 C          62.3755   82.4115   14.4012 C.ar    1  UNL1        0.0045
     28 C          61.8846   80.9969   14.3125 C.ar    1  UNL1        0.0001
     29 C          62.0807   80.2128   13.0488 C.ar    1  UNL1        0.0039
     30 C          62.7678   80.8433   11.8740 C.ar    1  UNL1        0.0716
     31 C          63.2587   82.2579   11.9627 C.ar    1  UNL1        0.0084
     32 C          62.9639   80.0592   10.6104 C.3     1  UNL1        0.4186
     33 F          63.1601   79.2751    9.3467 F       1  UNL1       -0.1659
     34 F          62.5057   78.8148   11.3114 F       1  UNL1       -0.1659
     35 F          63.4221   81.3036    9.9093 F       1  UNL1       -0.1659
@<TRIPOS>BOND
     1    20    21    2
     2    21    11    1
     3    11    12    2
     4    11    13   am
     5    13    14    1
     6    14    15    1
     7    15    16    1
     8    16    17    1
     9    17    18    1
    10    18     1    1
    11     1     2   ar
    12     2    22    1
    13    22    23   am
    14    23    24    2
    15    23    26    1
    16    26    27   ar
    17    27    28   ar
    18    28    29   ar
    19    29    30   ar
    20    30    32    1
    21    32    33    1
    22    32    34    1
    23    32    35    1
    24    30    31   ar
    25     2     3   ar
    26     3     4   ar
    27     4     5   ar
    28     5     6   ar
    29     6     7   ar
    30     7     8   ar
    31     8     9    1
    32     8    10   ar
    33    18    19    1
    34    19    13    1
    35    10     1   ar
    36    31    26   ar
    37    10     4   ar
    38    22    25    1
@<TRIPOS>MOLECULE
*****
 35 38 0 0 0
SMALL
GASTEIGER

@<TRIPOS>ATOM
      1 N          63.2181   83.9852   12.5074 N.ar    1  UNL1       -0.2999
      2 C          63.6481   84.6723   13.7695 C.ar    1  UNL1        0.2039
      3 N          63.8280   83.6257   14.8288 N.ar    1  UNL1       -0.2135
      4 C          63.5092   82.2917   14.2214 C.ar    1  UNL1        0.0996
      5 C          63.5135   80.9034   14.7894 C.ar    1  UNL1        0.0206
      6 C          63.1408   79.7374   13.9226 C.ar    1  UNL1        0.0013
      7 C          62.7639   79.9596   12.4879 C.ar    1  UNL1       -0.0027
      8 C          62.7596   81.3478   11.9199 C.ar    1  UNL1       -0.0045
      9 C          62.3827   81.5700   10.4851 C.3     1  UNL1        0.0326
     10 C          63.1323   82.5139   12.7867 C.ar    1  UNL1        0.0758
     11 C          60.5090   87.7487   10.5115 C.2     1  UNL1        0.2492
     12 O          60.0952   87.9107   11.9441 O.2     1  UNL1       -0.2699
     13 N          61.4749   86.6672   10.1275 N.am    1  UNL1       -0.2742
     14 C          61.8221   86.5919    8.6701 C.3     1  UNL1        0.0938
     15 C          62.7461   85.6348    7.9770 C.3     1  UNL1        0.0216
     16 C          63.5510   84.5166    8.5701 C.3     1  UNL1        0.0037
     17 C          63.6308   84.0793   10.0026 C.3     1  UNL1        0.0245
     18 C          62.9253   84.6522   11.1961 C.3     1  UNL1        0.1078
     19 C          61.9660   85.8039   11.2516 C.3     1  UNL1        0.1162
     20 C          60.1404   90.1511    9.5937 C.2     1  UNL1        0.0048
     21 C          59.9570   88.6681    9.4627 C.2     1  UNL1        0.0579
     22 N          63.8608   86.1471   13.9420 N.am    1  UNL1       -0.2518
     23 C          63.5783   86.7960   15.2646 C.2     1  UNL1        0.2516
     24 O          63.0831   85.9700   16.4147 O.2     1  UNL1       -0.2697
     25 H          64.1858   86.6892   13.1872 H       1  UNL1        0.1580
     26 C          63.7910   88.2707   15.4371 C.ar    1  UNL1        0.0537
     27 C          63.1826   88.9843   16.6079 C.ar    1  UNL1        0.0045
     28 C          63.3953   90.4591   16.7804 C.ar    1  UNL1        0.0001
     29 C          64.2164   91.2203   15.7821 C.ar    1  UNL1        0.0039
     30 C          64.8247   90.5067   14.6113 C.ar    1  UNL1        0.0716
     31 C          64.6120   89.0319   14.4388 C.ar    1  UNL1        0.0084
     32 C          65.6456   91.2679   13.6131 C.3     1  UNL1        0.4186
     33 F          66.4666   92.0291   12.6148 F       1  UNL1       -0.1659
     34 F          66.8178   91.2300   14.5482 F       1  UNL1       -0.1659
     35 F          64.4735   91.3058   12.6780 F       1  UNL1       -0.1659
@<TRIPOS>BOND
     1    20    21    2
     2    21    11    1
     3    11    12    2
     4    11    13   am
     5    13    14    1
     6    14    15    1
     7    15    16    1
     8    16    17    1
     9    17    18    1
    10    18     1    1
    11     1     2   ar
    12     2    22    1
    13    22    23   am
    14    23    24    2
    15    23    26    1
    16    26    27   ar
    17    27    28   ar
    18    28    29   ar
    19    29    30   ar
    20    30    32    1
    21    32    33    1
    22    32    34    1
    23    32    35    1
    24    30    31   ar
    25     2     3   ar
    26     3     4   ar
    27     4     5   ar
    28     5     6   ar
    29     6     7   ar
    30     7     8   ar
    31     8     9    1
    32     8    10   ar
    33    18    19    1
    34    19    13    1
    35    10     1   ar
    36    31    26   ar
    37    10     4   ar
    38    22    25    1
@<TRIPOS>MOLECULE
*****
 35 38 0 0 0
SMALL
GASTEIGER

@<TRIPOS>ATOM
      1 N          62.8301   87.4883   11.8930 N.ar    1  UNL1       -0.2999
      2 C          62.9731   86.5251   13.0339 C.ar    1  UNL1        0.2039
      3 N          63.6176   87.2525   14.1765 N.ar    1  UNL1       -0.2135
      4 C          63.8729   88.6652   13.7417 C.ar    1  UNL1        0.0996
      5 C          64.4857   89.8377   14.4486 C.ar    1  UNL1        0.0206
      6 C          64.6118   91.1559   13.7441 C.ar    1  UNL1        0.0013
      7 C          64.1251   91.3017   12.3328 C.ar    1  UNL1       -0.0027
      8 C          63.5123   90.1292   11.6259 C.ar    1  UNL1       -0.0045
      9 C          63.0257   90.2749   10.2146 C.3     1  UNL1        0.0326
     10 C          63.3862   88.8109   12.3304 C.ar    1  UNL1        0.0758
     11 C          59.6688   89.3949    8.4495 C.2     1  UNL1        0.2492
     12 O          59.5873   90.4978    9.4628 O.2     1  UNL1       -0.2699
     13 N          60.5429   88.2033    8.7066 N.am    1  UNL1       -0.2742
     14 C          60.5524   87.1586    7.6302 C.3     1  UNL1        0.0938
     15 C          61.3132   85.8666    7.5874 C.3     1  UNL1        0.0216
     16 C          62.2525   85.3001    8.6106 C.3     1  UNL1        0.0037
     17 C          62.6629   85.8857    9.9291 C.3     1  UNL1        0.0245
     18 C          62.2355   87.1825   10.5502 C.3     1  UNL1        0.1078
     19 C          61.2920   88.2138   10.0061 C.3     1  UNL1        0.1162
     20 C          59.4622   90.1603    5.9753 C.2     1  UNL1        0.0048
     21 C          58.8764   89.4835    7.1790 C.2     1  UNL1        0.0579
     22 N          62.5465   85.0870   13.0325 N.am    1  UNL1       -0.2518
     23 C          63.5772   83.9989   13.0931 C.2     1  UNL1        0.2516
     24 O          65.0345   84.3489   13.1550 O.2     1  UNL1       -0.2697
     25 H          61.5900   84.8574   12.9919 H       1  UNL1        0.1580
     26 C          63.1506   82.5609   13.0917 C.ar    1  UNL1        0.0537
     27 C          62.6466   81.9269   14.3543 C.ar    1  UNL1        0.0045
     28 C          62.2200   80.4888   14.3529 C.ar    1  UNL1        0.0001
     29 C          62.2974   79.6848   13.0889 C.ar    1  UNL1        0.0039
     30 C          62.8014   80.3188   11.8264 C.ar    1  UNL1        0.0716
     31 C          63.2280   81.7568   11.8278 C.ar    1  UNL1        0.0084
     32 C          62.8787   79.5147   10.5625 C.3     1  UNL1        0.4186
     33 F          62.9561   78.7106    9.2986 F       1  UNL1       -0.1659
     34 F          63.1611   80.7655    9.7841 F       1  UNL1       -0.1659
     35 F          62.5964   78.2640   11.3409 F       1  UNL1       -0.1659
@<TRIPOS>BOND
     1    20    21    2
     2    21    11    1
     3    11    12    2
     4    11    13   am
     5    13    14    1
     6    14    15    1
     7    15    16    1
     8    16    17    1
     9    17    18    1
    10    18     1    1
    11     1     2   ar
    12     2    22    1
    13    22    23   am
    14    23    24    2
    15    23    26    1
    16    26    27   ar
    17    27    28   ar
    18    28    29   ar
    19    29    30   ar
    20    30    32    1
    21    32    33    1
    22    32    34    1
    23    32    35    1
    24    30    31   ar
    25     2     3   ar
    26     3     4   ar
    27     4     5   ar
    28     5     6   ar
    29     6     7   ar
    30     7     8   ar
    31     8     9    1
    32     8    10   ar
    33    18    19    1
    34    19    13    1
    35    10     1   ar
    36    31    26   ar
    37    10     4   ar
    38    22    25    1
@<TRIPOS>MOLECULE
*****
 35 38 0 0 0
SMALL
GASTEIGER

@<TRIPOS>ATOM
      1 N          62.8334   87.9963   12.0455 N.ar    1  UNL1       -0.2999
      2 C          63.1767   86.8574   12.9592 C.ar    1  UNL1        0.2039
      3 N          64.0261   87.3958   14.0721 N.ar    1  UNL1       -0.2135
      4 C          64.2078   88.8675   13.8462 C.ar    1  UNL1        0.0996
      5 C          64.9492   89.9176   14.6192 C.ar    1  UNL1        0.0206
      6 C          64.9535   91.3388   14.1396 C.ar    1  UNL1        0.0013
      7 C          64.2164   91.7100   12.8871 C.ar    1  UNL1       -0.0027
      8 C          63.4750   90.6599   12.1141 C.ar    1  UNL1       -0.0045
      9 C          62.7378   91.0311   10.8616 C.3     1  UNL1        0.0326
     10 C          63.4707   89.2387   12.5936 C.ar    1  UNL1        0.0758
     11 C          62.2206   85.1899    7.8940 C.2     1  UNL1        0.2492
     12 O          63.3449   84.4196    8.5206 O.2     1  UNL1       -0.2699
     13 N          61.6711   86.4059    8.5791 N.am    1  UNL1       -0.2742
     14 C          60.5489   87.1024    7.8681 C.3     1  UNL1        0.0938
     15 C          59.7950   88.3296    8.2871 C.3     1  UNL1        0.0216
     16 C          59.9771   89.1634    9.5206 C.3     1  UNL1        0.0037
     17 C          60.9580   88.9760   10.6397 C.3     1  UNL1        0.0245
     18 C          61.9993   87.9084   10.8018 C.3     1  UNL1        0.1078
     19 C          62.3166   86.7647    9.8848 C.3     1  UNL1        0.1162
     20 C          62.5582   84.3552    5.4569 C.2     1  UNL1        0.0048
     21 C          61.6457   84.7443    6.5822 C.2     1  UNL1        0.0579
     22 N          62.7461   85.4305   12.7897 N.am    1  UNL1       -0.2518
     23 C          63.6936   84.3165   13.1234 C.2     1  UNL1        0.2516
     24 O          65.0716   84.6294   13.6266 O.2     1  UNL1       -0.2697
     25 H          61.8417   85.2252   12.4595 H       1  UNL1        0.1580
     26 C          63.2630   82.8897   12.9540 C.ar    1  UNL1        0.0537
     27 C          64.0642   81.9622   12.0891 C.ar    1  UNL1        0.0045
     28 C          63.6336   80.5353   11.9197 C.ar    1  UNL1        0.0001
     29 C          62.4019   80.0360   12.6151 C.ar    1  UNL1        0.0039
     30 C          61.6008   80.9635   13.4799 C.ar    1  UNL1        0.0716
     31 C          62.0313   82.3903   13.6494 C.ar    1  UNL1        0.0084
     32 C          60.3691   80.4641   14.1753 C.3     1  UNL1        0.4186
     33 F          59.1374   79.9646   14.8707 F       1  UNL1       -0.1659
     34 F          60.0202   81.8695   14.5665 F       1  UNL1       -0.1659
     35 F          60.7181   79.0587   13.7841 F       1  UNL1       -0.1659
@<TRIPOS>BOND
     1    20    21    2
     2    21    11    1
     3    11    12    2
     4    11    13   am
     5    13    14    1
     6    14    15    1
     7    15    16    1
     8    16    17    1
     9    17    18    1
    10    18     1    1
    11     1     2   ar
    12     2    22    1
    13    22    23   am
    14    23    24    2
    15    23    26    1
    16    26    27   ar
    17    27    28   ar
    18    28    29   ar
    19    29    30   ar
    20    30    32    1
    21    32    33    1
    22    32    34    1
    23    32    35    1
    24    30    31   ar
    25     2     3   ar
    26     3     4   ar
    27     4     5   ar
    28     5     6   ar
    29     6     7   ar
    30     7     8   ar
    31     8     9    1
    32     8    10   ar
    33    18    19    1
    34    19    13    1
    35    10     1   ar
    36    31    26   ar
    37    10     4   ar
    38    22    25    1
