@<TRIPOS>MOLECULE
*****
 28 30 0 0 0
SMALL
GASTEIGER

@<TRIPOS>ATOM
      1 N          61.9599   90.0253   11.3213 N.ar    1  UNL1       -0.3237
      2 C          62.4718   90.6346   10.0499 C.ar    1  UNL1        0.0762
      3 C          63.7751   91.3127   10.3527 C.ar    1  UNL1        0.0214
      4 C          64.0686   91.1225   11.8114 C.ar    1  UNL1        0.0319
      5 C          65.2125   91.5710   12.6718 C.ar    1  UNL1        0.0658
      6 C          65.2345   91.2238   14.1309 C.ar    1  UNL1        0.0159
      7 C          64.1127   90.4281   14.7295 C.ar    1  UNL1        0.0028
      8 C          62.9688   89.9796   13.8691 C.ar    1  UNL1        0.0173
      9 C          62.9468   90.3268   12.4100 C.ar    1  UNL1        0.0614
     10 N          66.3344   92.3666   12.0732 N.pl3   1  UNL1       -0.2187
     11 H          67.1922   91.9299   11.8668 H       1  UNL1        0.1734
     12 S          66.1492   93.8278   11.7890 S.O2    1  UNL1        0.0558
     13 C          65.9641   95.2890   11.5048 C.3     1  UNL1        0.1996
     14 O          66.0398   94.1000   13.2600 O.2     1  UNL1       -0.1544
     15 O          66.2587   93.5555   10.3180 O.2     1  UNL1       -0.1544
     16 C          60.6850   89.2505   11.4769 C.3     1  UNL1        0.1142
     17 C          61.3296   88.0601   10.8311 C.ar    1  UNL1       -0.0014
     18 C          62.1415   87.1067   11.6570 C.ar    1  UNL1       -0.0016
     19 C          62.7862   85.9162   11.0112 C.ar    1  UNL1        0.0111
     20 C          62.6190   85.6790    9.5395 C.ar    1  UNL1        0.0577
     21 CL         63.2637   84.4884    8.8938 Cl      1  UNL1       -0.0822
     22 C          61.8072   86.6323    8.7137 C.ar    1  UNL1        0.0111
     23 C          61.1625   87.8228    9.3594 C.ar    1  UNL1       -0.0016
     24 C          59.4100   88.4758   11.6325 C.3     1  UNL1        0.1619
     25 O          58.7476   88.3835   12.9751 O.3     1  UNL1       -0.3797
     26 H          59.3159   87.8845   13.5825 H       1  UNL1        0.2105
     27 C          58.9166   91.1535   11.4298 C.3     1  UNL1        0.0024
     28 C          60.0403   90.4410   12.1227 C.3     1  UNL1        0.0275
@<TRIPOS>BOND
     1    27    28    1
     2    16    28    1
     3    16    24    1
     4    24    25    1
     5    16    17    1
     6    17    18   ar
     7    18    19   ar
     8    19    20   ar
     9    20    21    1
    10    20    22   ar
    11    22    23   ar
    12    16     1    1
    13     1     2   ar
    14     2     3   ar
    15     3     4   ar
    16     4     5   ar
    17     5    10    1
    18    10    12    1
    19    12    13    1
    20    12    14    2
    21    12    15    2
    22     5     6   ar
    23     6     7   ar
    24     7     8   ar
    25     8     9   ar
    26    23    17   ar
    27     9     1   ar
    28     9     4   ar
    29    25    26    1
    30    10    11    1
@<TRIPOS>MOLECULE
*****
 28 30 0 0 0
SMALL
GASTEIGER

@<TRIPOS>ATOM
      1 N          61.9228   89.9419   11.5727 N.ar    1  UNL1       -0.3237
      2 C          62.5574   90.6361   10.4042 C.ar    1  UNL1        0.0762
      3 C          63.8381   91.2591   10.8749 C.ar    1  UNL1        0.0214
      4 C          63.9951   90.9499   12.3342 C.ar    1  UNL1        0.0319
      5 C          65.0630   91.3045   13.3261 C.ar    1  UNL1        0.0658
      6 C          64.9472   90.8449   14.7492 C.ar    1  UNL1        0.0159
      7 C          63.7635   90.0308   15.1805 C.ar    1  UNL1        0.0028
      8 C          62.6956   89.6762   14.1886 C.ar    1  UNL1        0.0173
      9 C          62.8114   90.1358   12.7655 C.ar    1  UNL1        0.0614
     10 N          66.2467   92.1186   12.8948 N.pl3   1  UNL1       -0.2187
     11 H          66.4558   92.2145   11.9376 H       1  UNL1        0.1734
     12 S          67.1119   92.7866   13.9220 S.O2    1  UNL1        0.0558
     13 C          67.9772   93.4546   14.9493 C.3     1  UNL1        0.1996
     14 O          68.1303   91.6953   13.7739 O.2     1  UNL1       -0.1544
     15 O          66.0935   93.8778   14.0702 O.2     1  UNL1       -0.1544
     16 C          60.6272   89.1863   11.5520 C.3     1  UNL1        0.1142
     17 C          61.3199   88.0157   10.9199 C.ar    1  UNL1       -0.0014
     18 C          61.3718   87.8920    9.4259 C.ar    1  UNL1       -0.0016
     19 C          62.0646   86.7213    8.7939 C.ar    1  UNL1        0.0111
     20 C          62.7054   85.6742    9.6557 C.ar    1  UNL1        0.0577
     21 CL         63.3982   84.5035    9.0236 Cl      1  UNL1       -0.0822
     22 C          62.6536   85.7978   11.1497 C.ar    1  UNL1        0.0111
     23 C          61.9608   86.9685   11.7819 C.ar    1  UNL1       -0.0016
     24 C          59.3315   88.4308   11.5313 C.3     1  UNL1        0.1619
     25 O          58.4916   88.3484   12.7714 O.3     1  UNL1       -0.3797
     26 H          58.9647   87.8408   13.4492 H       1  UNL1        0.2105
     27 C          58.9521   91.1657   11.3896 C.3     1  UNL1        0.0024
     28 C          59.9344   90.3570   12.1841 C.3     1  UNL1        0.0275
@<TRIPOS>BOND
     1    27    28    1
     2    16    28    1
     3    16    24    1
     4    24    25    1
     5    16    17    1
     6    17    18   ar
     7    18    19   ar
     8    19    20   ar
     9    20    21    1
    10    20    22   ar
    11    22    23   ar
    12    16     1    1
    13     1     2   ar
    14     2     3   ar
    15     3     4   ar
    16     4     5   ar
    17     5    10    1
    18    10    12    1
    19    12    13    1
    20    12    14    2
    21    12    15    2
    22     5     6   ar
    23     6     7   ar
    24     7     8   ar
    25     8     9   ar
    26    23    17   ar
    27     9     1   ar
    28     9     4   ar
    29    25    26    1
    30    10    11    1
@<TRIPOS>MOLECULE
*****
 28 30 0 0 0
SMALL
GASTEIGER

@<TRIPOS>ATOM
      1 N          62.2133   89.1322   11.4000 N.ar    1  UNL1       -0.3237
      2 C          62.4359   88.3675   12.6711 C.ar    1  UNL1        0.0762
      3 C          63.5412   89.0407   13.4294 C.ar    1  UNL1        0.0214
      4 C          64.0017   90.2215   12.6271 C.ar    1  UNL1        0.0319
      5 C          65.0623   91.2524   12.8765 C.ar    1  UNL1        0.0658
      6 C          65.3022   92.3399   11.8717 C.ar    1  UNL1        0.0159
      7 C          64.4815   92.3964   10.6174 C.ar    1  UNL1        0.0028
      8 C          63.4209   91.3655   10.3679 C.ar    1  UNL1        0.0173
      9 C          63.1810   90.2780   11.3728 C.ar    1  UNL1        0.0614
     10 N          65.8830   91.1958   14.1308 N.pl3   1  UNL1       -0.2187
     11 H          65.8894   90.3777   14.6784 H       1  UNL1        0.1734
     12 S          66.6939   92.3858   14.5508 S.O2    1  UNL1        0.0558
     13 C          67.5049   93.5757   14.9708 C.3     1  UNL1        0.1996
     14 O          67.8838   91.8309   13.8254 O.2     1  UNL1       -0.1544
     15 O          65.5040   92.9406   15.2762 O.2     1  UNL1       -0.1544
     16 C          61.2008   88.8081   10.3418 C.3     1  UNL1        0.1142
     17 C          61.8078   87.4463   10.1781 C.ar    1  UNL1       -0.0014
     18 C          61.6655   86.4256   11.2681 C.ar    1  UNL1       -0.0016
     19 C          62.2726   85.0639   11.1043 C.ar    1  UNL1        0.0111
     20 C          63.0220   84.7226    9.8505 C.ar    1  UNL1        0.0577
     21 CL         63.6291   83.3607    9.6868 Cl      1  UNL1       -0.0822
     22 C          63.1643   85.7431    8.7605 C.ar    1  UNL1        0.0111
     23 C          62.5573   87.1050    8.9242 C.ar    1  UNL1       -0.0016
     24 C          60.1882   88.4840    9.2836 C.3     1  UNL1        0.1619
     25 O          59.9812   89.4218    8.1314 O.3     1  UNL1       -0.3797
     26 H          59.6136   90.2582    8.4572 H       1  UNL1        0.2105
     27 C          59.4975   90.3871   11.5062 C.3     1  UNL1        0.0024
     28 C          60.5937   90.1699   10.5055 C.3     1  UNL1        0.0275
@<TRIPOS>BOND
     1    27    28    1
     2    16    28    1
     3    16    24    1
     4    24    25    1
     5    16    17    1
     6    17    18   ar
     7    18    19   ar
     8    19    20   ar
     9    20    21    1
    10    20    22   ar
    11    22    23   ar
    12    16     1    1
    13     1     2   ar
    14     2     3   ar
    15     3     4   ar
    16     4     5   ar
    17     5    10    1
    18    10    12    1
    19    12    13    1
    20    12    14    2
    21    12    15    2
    22     5     6   ar
    23     6     7   ar
    24     7     8   ar
    25     8     9   ar
    26    23    17   ar
    27     9     1   ar
    28     9     4   ar
    29    25    26    1
    30    10    11    1
@<TRIPOS>MOLECULE
*****
 28 30 0 0 0
SMALL
GASTEIGER

@<TRIPOS>ATOM
      1 N          62.0243   86.9063   11.2361 N.ar    1  UNL1       -0.3237
      2 C          61.7656   85.4319   11.1395 C.ar    1  UNL1        0.0762
      3 C          62.5014   84.7579   12.2595 C.ar    1  UNL1        0.0214
      4 C          63.2149   85.8158   13.0482 C.ar    1  UNL1        0.0319
      5 C          64.0949   85.7415   14.2606 C.ar    1  UNL1        0.0658
      6 C          64.6800   86.9950   14.8405 C.ar    1  UNL1        0.0159
      7 C          64.3851   88.3228   14.2080 C.ar    1  UNL1        0.0028
      8 C          63.5051   88.3970   12.9956 C.ar    1  UNL1        0.0173
      9 C          62.9199   87.1435   12.4157 C.ar    1  UNL1        0.0614
     10 N          64.3898   84.4137   14.8931 N.pl3   1  UNL1       -0.2187
     11 H          65.2511   84.2647   15.3461 H       1  UNL1        0.1734
     12 S          63.3725   83.3130   14.8355 S.O2    1  UNL1        0.0558
     13 C          62.3550   82.2123   14.7780 C.3     1  UNL1        0.1996
     14 O          62.4956   84.0738   15.7854 O.2     1  UNL1       -0.1544
     15 O          64.2493   82.5523   13.8857 O.2     1  UNL1       -0.1544
     16 C          61.4824   87.9587   10.3148 C.3     1  UNL1        0.1142
     17 C          61.5183   86.9815    9.1774 C.ar    1  UNL1       -0.0014
     18 C          62.8008   86.2882    8.8244 C.ar    1  UNL1       -0.0016
     19 C          62.8366   85.3110    7.6870 C.ar    1  UNL1        0.0111
     20 C          61.5900   85.0270    6.9025 C.ar    1  UNL1        0.0577
     21 CL         61.6259   84.0498    5.7651 Cl      1  UNL1       -0.0822
     22 C          60.3075   85.7202    7.2555 C.ar    1  UNL1        0.0111
     23 C          60.2716   86.6975    8.3929 C.ar    1  UNL1       -0.0016
     24 C          60.9405   89.0112    9.3935 C.3     1  UNL1        0.1619
     25 O          61.6806   90.3033    9.2133 O.3     1  UNL1       -0.3797
     26 H          61.6742   90.7986   10.0473 H       1  UNL1        0.2105
     27 C          60.1349   89.4914   11.9227 C.3     1  UNL1        0.0024
     28 C          61.4465   88.9359   11.4522 C.3     1  UNL1        0.0275
@<TRIPOS>BOND
     1    27    28    1
     2    16    28    1
     3    16    24    1
     4    24    25    1
     5    16    17    1
     6    17    18   ar
     7    18    19   ar
     8    19    20   ar
     9    20    21    1
    10    20    22   ar
    11    22    23   ar
    12    16     1    1
    13     1     2   ar
    14     2     3   ar
    15     3     4   ar
    16     4     5   ar
    17     5    10    1
    18    10    12    1
    19    12    13    1
    20    12    14    2
    21    12    15    2
    22     5     6   ar
    23     6     7   ar
    24     7     8   ar
    25     8     9   ar
    26    23    17   ar
    27     9     1   ar
    28     9     4   ar
    29    25    26    1
    30    10    11    1
@<TRIPOS>MOLECULE
*****
 28 30 0 0 0
SMALL
GASTEIGER

@<TRIPOS>ATOM
      1 N          61.4725   87.2037   10.7176 N.ar    1  UNL1       -0.3237
      2 C          61.4463   86.9224   12.1907 C.ar    1  UNL1        0.0762
      3 C          62.2150   85.6576   12.4347 C.ar    1  UNL1        0.0214
      4 C          62.7162   85.1573   11.1124 C.ar    1  UNL1        0.0319
      5 C          63.5312   83.9552   10.7376 C.ar    1  UNL1        0.0658
      6 C          63.8873   83.7085    9.3016 C.ar    1  UNL1        0.0159
      7 C          63.4284   84.6641    8.2403 C.ar    1  UNL1        0.0028
      8 C          62.6134   85.8663    8.6151 C.ar    1  UNL1        0.0173
      9 C          62.2573   86.1129   10.0512 C.ar    1  UNL1        0.0614
     10 N          63.9902   82.9996   11.7989 N.pl3   1  UNL1       -0.2187
     11 H          64.9381   82.9763   12.0637 H       1  UNL1        0.1734
     12 S          63.0049   82.0796   12.4567 S.O2    1  UNL1        0.0558
     13 C          62.0195   81.1595   13.1145 C.3     1  UNL1        0.1996
     14 O          63.1579   82.8355   13.7432 O.2     1  UNL1       -0.1544
     15 O          62.8519   81.3237   11.1702 O.2     1  UNL1       -0.1544
     16 C          60.8270   88.3710   10.0313 C.3     1  UNL1        0.1142
     17 C          61.8377   89.2921   10.6476 C.ar    1  UNL1       -0.0014
     18 C          62.6653   90.1890    9.7753 C.ar    1  UNL1       -0.0016
     19 C          63.6759   91.1102   10.3916 C.ar    1  UNL1        0.0111
     20 C          63.8591   91.1346   11.8802 C.ar    1  UNL1        0.0577
     21 CL         64.8699   92.0558   12.4965 Cl      1  UNL1       -0.0822
     22 C          63.0316   90.2378   12.7525 C.ar    1  UNL1        0.0111
     23 C          62.0209   89.3165   12.1362 C.ar    1  UNL1       -0.0016
     24 C          60.1816   89.5382    9.3450 C.3     1  UNL1        0.1619
     25 O          59.6108   90.6634   10.1563 O.3     1  UNL1       -0.3797
     26 H          58.8553   90.3397   10.6714 H       1  UNL1        0.2105
     27 C          59.4256   87.6193    7.9767 C.3     1  UNL1        0.0024
     28 C          59.8163   87.4498    9.4150 C.3     1  UNL1        0.0275
@<TRIPOS>BOND
     1    27    28    1
     2    16    28    1
     3    16    24    1
     4    24    25    1
     5    16    17    1
     6    17    18   ar
     7    18    19   ar
     8    19    20   ar
     9    20    21    1
    10    20    22   ar
    11    22    23   ar
    12    16     1    1
    13     1     2   ar
    14     2     3   ar
    15     3     4   ar
    16     4     5   ar
    17     5    10    1
    18    10    12    1
    19    12    13    1
    20    12    14    2
    21    12    15    2
    22     5     6   ar
    23     6     7   ar
    24     7     8   ar
    25     8     9   ar
    26    23    17   ar
    27     9     1   ar
    28     9     4   ar
    29    25    26    1
    30    10    11    1
@<TRIPOS>MOLECULE
*****
 28 30 0 0 0
SMALL
GASTEIGER

@<TRIPOS>ATOM
      1 N          62.4027   86.2263   10.9812 N.ar    1  UNL1       -0.3237
      2 C          62.9191   87.3250   11.8622 C.ar    1  UNL1        0.0762
      3 C          63.4474   86.7010   13.1198 C.ar    1  UNL1        0.0214
      4 C          63.2574   85.2167   13.0161 C.ar    1  UNL1        0.0319
      5 C          63.5889   84.0944   13.9544 C.ar    1  UNL1        0.0658
      6 C          63.2747   82.6787   13.5710 C.ar    1  UNL1        0.0159
      7 C          62.6291   82.3853   12.2492 C.ar    1  UNL1        0.0028
      8 C          62.2976   83.5076   11.3109 C.ar    1  UNL1        0.0173
      9 C          62.6117   84.9233   11.6943 C.ar    1  UNL1        0.0614
     10 N          64.2345   84.3878   15.2762 N.pl3   1  UNL1       -0.2187
     11 H          65.0868   83.9563   15.5143 H       1  UNL1        0.1734
     12 S          63.5816   85.3386   16.2352 S.O2    1  UNL1        0.0558
     13 C          62.9288   86.2894   17.1942 C.3     1  UNL1        0.1996
     14 O          64.7057   86.3115   16.0359 O.2     1  UNL1       -0.1544
     15 O          62.4575   84.3656   16.4345 O.2     1  UNL1       -0.1544
     16 C          61.7856   86.4000    9.6251 C.3     1  UNL1        0.1142
     17 C          61.0621   87.6208   10.1108 C.ar    1  UNL1       -0.0014
     18 C          60.0964   87.5154   11.2538 C.ar    1  UNL1       -0.0016
     19 C          59.3729   88.7363   11.7393 C.ar    1  UNL1        0.0111
     20 C          59.6150   90.0627   11.0821 C.ar    1  UNL1        0.0577
     21 CL         58.8914   91.2836   11.5678 Cl      1  UNL1       -0.0822
     22 C          60.5806   90.1682    9.9391 C.ar    1  UNL1        0.0111
     23 C          61.3042   88.9473    9.4534 C.ar    1  UNL1       -0.0016
     24 C          61.1685   86.5737    8.2690 C.3     1  UNL1        0.1619
     25 O          59.7867   86.0546    8.0018 O.3     1  UNL1       -0.3797
     26 H          59.7890   85.0862    8.0563 H       1  UNL1        0.2105
     27 C          63.0044   85.1137    7.7250 C.3     1  UNL1        0.0024
     28 C          62.5091   85.1791    9.1394 C.3     1  UNL1        0.0275
@<TRIPOS>BOND
     1    27    28    1
     2    16    28    1
     3    16    24    1
     4    24    25    1
     5    16    17    1
     6    17    18   ar
     7    18    19   ar
     8    19    20   ar
     9    20    21    1
    10    20    22   ar
    11    22    23   ar
    12    16     1    1
    13     1     2   ar
    14     2     3   ar
    15     3     4   ar
    16     4     5   ar
    17     5    10    1
    18    10    12    1
    19    12    13    1
    20    12    14    2
    21    12    15    2
    22     5     6   ar
    23     6     7   ar
    24     7     8   ar
    25     8     9   ar
    26    23    17   ar
    27     9     1   ar
    28     9     4   ar
    29    25    26    1
    30    10    11    1
@<TRIPOS>MOLECULE
*****
 28 30 0 0 0
SMALL
GASTEIGER

@<TRIPOS>ATOM
      1 N          63.1037   85.5451   13.3446 N.ar    1  UNL1       -0.3237
      2 C          62.3557   85.3676   12.0566 C.ar    1  UNL1        0.0762
      3 C          62.2980   86.6983   11.3669 C.ar    1  UNL1        0.0214
      4 C          63.0104   87.6983   12.2286 C.ar    1  UNL1        0.0319
      5 C          63.2700   89.1658   12.0582 C.ar    1  UNL1        0.0658
      6 C          64.0276   89.9205   13.1101 C.ar    1  UNL1        0.0159
      7 C          64.5255   89.2077   14.3324 C.ar    1  UNL1        0.0028
      8 C          64.2659   87.7403   14.5028 C.ar    1  UNL1        0.0173
      9 C          63.5083   86.9856   13.4510 C.ar    1  UNL1        0.0614
     10 N          62.7721   89.8785   10.8359 N.pl3   1  UNL1       -0.2187
     11 H          63.4129   90.2503   10.1876 H       1  UNL1        0.1734
     12 S          61.2978   90.0248   10.6014 S.O2    1  UNL1        0.0558
     13 C          59.8235   90.1711   10.3668 C.3     1  UNL1        0.1996
     14 O          61.4357   89.3113    9.2893 O.2     1  UNL1       -0.1544
     15 O          61.1599   90.7384   11.9135 O.2     1  UNL1       -0.1544
     16 C          63.3958   84.4707   14.3499 C.3     1  UNL1        0.1142
     17 C          63.3435   83.4390   13.2624 C.ar    1  UNL1       -0.0014
     18 C          62.3433   82.3234   13.3345 C.ar    1  UNL1       -0.0016
     19 C          62.2910   81.2916   12.2470 C.ar    1  UNL1        0.0111
     20 C          63.2389   81.3754   11.0874 C.ar    1  UNL1        0.0577
     21 CL         63.1865   80.3435    9.9999 Cl      1  UNL1       -0.0822
     22 C          64.2390   82.4909   11.0153 C.ar    1  UNL1        0.0111
     23 C          64.2914   83.5227   12.1028 C.ar    1  UNL1       -0.0016
     24 C          63.6879   83.3965   15.3552 C.3     1  UNL1        0.1619
     25 O          65.0997   82.9409   15.5771 O.3     1  UNL1       -0.3797
     26 H          65.4291   82.5064   14.7748 H       1  UNL1        0.2105
     27 C          62.5721   85.3625   16.6470 C.3     1  UNL1        0.0024
     28 C          63.4481   85.5025   15.4374 C.3     1  UNL1        0.0275
@<TRIPOS>BOND
     1    27    28    1
     2    16    28    1
     3    16    24    1
     4    24    25    1
     5    16    17    1
     6    17    18   ar
     7    18    19   ar
     8    19    20   ar
     9    20    21    1
    10    20    22   ar
    11    22    23   ar
    12    16     1    1
    13     1     2   ar
    14     2     3   ar
    15     3     4   ar
    16     4     5   ar
    17     5    10    1
    18    10    12    1
    19    12    13    1
    20    12    14    2
    21    12    15    2
    22     5     6   ar
    23     6     7   ar
    24     7     8   ar
    25     8     9   ar
    26    23    17   ar
    27     9     1   ar
    28     9     4   ar
    29    25    26    1
    30    10    11    1
@<TRIPOS>MOLECULE
*****
 28 30 0 0 0
SMALL
GASTEIGER

@<TRIPOS>ATOM
      1 N          62.5843   84.5047   12.6166 N.ar    1  UNL1       -0.3237
      2 C          61.6510   85.6583   12.8356 C.ar    1  UNL1        0.0762
      3 C          61.4148   86.3213   11.5110 C.ar    1  UNL1        0.0214
      4 C          62.2021   85.5774   10.4733 C.ar    1  UNL1        0.0319
      5 C          62.3542   85.7773    8.9945 C.ar    1  UNL1        0.0658
      6 C          63.2291   84.8544    8.1991 C.ar    1  UNL1        0.0159
      7 C          63.9519   83.7316    8.8824 C.ar    1  UNL1        0.0028
      8 C          63.7998   83.5317   10.3612 C.ar    1  UNL1        0.0173
      9 C          62.9249   84.4546   11.1566 C.ar    1  UNL1        0.0614
     10 N          61.6314   86.9000    8.3112 N.pl3   1  UNL1       -0.2187
     11 H          62.1313   87.6872    7.9952 H       1  UNL1        0.1734
     12 S          60.1471   86.8236    8.1092 S.O2    1  UNL1        0.0558
     13 C          58.6627   86.7470    7.9072 C.3     1  UNL1        0.1996
     14 O          60.3206   85.5659    7.3104 O.2     1  UNL1       -0.1544
     15 O          59.9736   88.0812    8.9081 O.2     1  UNL1       -0.1544
     16 C          63.0885   83.5658   13.6722 C.3     1  UNL1        0.1142
     17 C          63.1168   84.6930   14.6613 C.ar    1  UNL1       -0.0014
     18 C          62.2180   84.6602   15.8619 C.ar    1  UNL1       -0.0016
     19 C          62.2463   85.7875   16.8509 C.ar    1  UNL1        0.0111
     20 C          63.1733   86.9477   16.6396 C.ar    1  UNL1        0.0577
     21 CL         63.2016   88.0750   17.6287 Cl      1  UNL1       -0.0822
     22 C          64.0721   86.9806   15.4391 C.ar    1  UNL1        0.0111
     23 C          64.0438   85.8533   14.4500 C.ar    1  UNL1       -0.0016
     24 C          63.5927   82.6269   14.7278 C.3     1  UNL1        0.1619
     25 O          64.8705   82.9298   15.4526 O.3     1  UNL1       -0.3797
     26 H          65.6131   82.8880   14.8300 H       1  UNL1        0.2105
     27 C          62.4582   81.1191   13.0665 C.3     1  UNL1        0.0024
     28 C          63.0602   82.4385   12.6831 C.3     1  UNL1        0.0275
@<TRIPOS>BOND
     1    27    28    1
     2    16    28    1
     3    16    24    1
     4    24    25    1
     5    16    17    1
     6    17    18   ar
     7    18    19   ar
     8    19    20   ar
     9    20    21    1
    10    20    22   ar
    11    22    23   ar
    12    16     1    1
    13     1     2   ar
    14     2     3   ar
    15     3     4   ar
    16     4     5   ar
    17     5    10    1
    18    10    12    1
    19    12    13    1
    20    12    14    2
    21    12    15    2
    22     5     6   ar
    23     6     7   ar
    24     7     8   ar
    25     8     9   ar
    26    23    17   ar
    27     9     1   ar
    28     9     4   ar
    29    25    26    1
    30    10    11    1
@<TRIPOS>MOLECULE
*****
 28 30 0 0 0
SMALL
GASTEIGER

@<TRIPOS>ATOM
      1 N          63.5436   88.7212   12.9194 N.ar    1  UNL1       -0.3237
      2 C          64.2657   88.4801   14.2118 C.ar    1  UNL1        0.0762
      3 C          64.3067   86.9998   14.4506 C.ar    1  UNL1        0.0214
      4 C          63.6099   86.3260   13.3059 C.ar    1  UNL1        0.0319
      5 C          63.3439   84.8812   13.0030 C.ar    1  UNL1        0.0658
      6 C          62.6063   84.5003   11.7537 C.ar    1  UNL1        0.0159
      7 C          62.1346   85.5642   10.8073 C.ar    1  UNL1        0.0028
      8 C          62.4006   87.0090   11.1102 C.ar    1  UNL1        0.0173
      9 C          63.1382   87.3899   12.3595 C.ar    1  UNL1        0.0614
     10 N          63.8156   83.8173   13.9494 N.pl3   1  UNL1       -0.2187
     11 H          64.6272   83.9619   14.4876 H       1  UNL1        0.1734
     12 S          63.0506   82.5333   14.0759 S.O2    1  UNL1        0.0558
     13 C          62.2857   81.2491   14.2023 C.3     1  UNL1        0.1996
     14 O          64.0652   81.8439   13.2125 O.2     1  UNL1       -0.1544
     15 O          62.0361   83.2226   14.9392 O.2     1  UNL1       -0.1544
     16 C          63.2741   90.0587   12.2962 C.3     1  UNL1        0.1142
     17 C          64.1745   90.7096   13.3037 C.ar    1  UNL1       -0.0014
     18 C          63.7210   90.8652   14.7251 C.ar    1  UNL1       -0.0016
     19 C          64.6216   91.5161   15.7327 C.ar    1  UNL1        0.0111
     20 C          65.9756   92.0116   15.3190 C.ar    1  UNL1        0.0577
     21 CL         66.8761   92.6626   16.3267 Cl      1  UNL1       -0.0822
     22 C          66.4291   91.8561   13.8977 C.ar    1  UNL1        0.0111
     23 C          65.5286   91.2051   12.8901 C.ar    1  UNL1       -0.0016
     24 C          63.0045   91.3962   11.6729 C.3     1  UNL1        0.1619
     25 O          63.5279   91.7036   10.3012 O.3     1  UNL1       -0.3797
     26 H          64.4974   91.7270   10.3228 H       1  UNL1        0.2105
     27 C          60.9788   89.9216   11.0864 C.3     1  UNL1        0.0024
     28 C          62.3735   89.4078   11.2885 C.3     1  UNL1        0.0275
@<TRIPOS>BOND
     1    27    28    1
     2    16    28    1
     3    16    24    1
     4    24    25    1
     5    16    17    1
     6    17    18   ar
     7    18    19   ar
     8    19    20   ar
     9    20    21    1
    10    20    22   ar
    11    22    23   ar
    12    16     1    1
    13     1     2   ar
    14     2     3   ar
    15     3     4   ar
    16     4     5   ar
    17     5    10    1
    18    10    12    1
    19    12    13    1
    20    12    14    2
    21    12    15    2
    22     5     6   ar
    23     6     7   ar
    24     7     8   ar
    25     8     9   ar
    26    23    17   ar
    27     9     1   ar
    28     9     4   ar
    29    25    26    1
    30    10    11    1
