@<TRIPOS>MOLECULE
*****
 46 50 0 0 0
SMALL
GASTEIGER

@<TRIPOS>ATOM
      1 C          63.7111   89.1794   16.1436 C.2     1  UNL1        0.2492
      2 O          63.8564   89.8550   17.4749 O.2     1  UNL1       -0.2699
      3 N          63.8789   89.9692   14.8795 N.am    1  UNL1       -0.2735
      4 C          63.3787   83.0645   14.3396 C.ar    1  UNL1        0.2924
      5 N          62.6289   83.3270   15.6119 N.ar    1  UNL1       -0.1946
      6 C          62.7716   84.7832   15.9421 C.ar    1  UNL1        0.1202
      7 C          62.2467   85.6110   17.0775 C.ar    1  UNL1        0.0225
      8 C          62.5599   87.0764   17.1447 C.ar    1  UNL1        0.0063
      9 C          63.3979   87.7140   16.0764 C.ar    1  UNL1        0.0567
     10 C          63.9228   86.8861   14.9410 C.ar    1  UNL1        0.0437
     11 C          63.6096   85.4208   14.8739 C.ar    1  UNL1        0.1662
     12 O          63.9848   84.3585   13.8835 O.2     1  UNL1       -0.4237
     13 N          63.5009   81.7405   13.6453 N.pl3   1  UNL1       -0.2619
     14 C          64.5297   81.5494   12.5705 C.3     1  UNL1        0.1166
     15 C          61.1065   80.7758   13.9382 C.3     1  UNL1        0.0233
     16 C          62.5944   80.6076   14.0257 C.3     1  UNL1        0.0952
     17 C          64.1921   91.4347   14.9467 C.3     1  UNL1        0.0937
     18 C          65.6190   91.8958   14.9810 C.3     1  UNL1        0.0199
     19 C          66.1182   92.7043   16.1417 C.3     1  UNL1        0.0017
     20 C          67.5451   93.1655   16.1760 C.3     1  UNL1        0.0001
     21 C          68.4729   92.8182   15.0496 C.3     1  UNL1        0.0000
     22 C          67.9736   92.0098   13.8889 C.3     1  UNL1        0.0001
     23 C          66.5467   91.5486   13.8546 C.3     1  UNL1        0.0017
     24 C          63.7336   89.2936   13.5481 C.3     1  UNL1        0.1245
     25 C          62.4983   89.5140   12.7261 C.3     1  UNL1        0.1484
     26 O          61.2127   89.9031   13.3937 O.3     1  UNL1       -0.3810
     27 H          61.3527   89.9688   14.3513 H       1  UNL1        0.2105
     28 C          62.5488   89.3452   11.2365 C.3     1  UNL1        0.1075
     29 N          63.5012   90.1679   10.4203 N.am    1  UNL1       -0.2695
     30 C          63.8561   91.5581   10.8575 C.2     1  UNL1        0.4020
     31 O          63.2588   92.1257   12.1109 O.2     1  UNL1       -0.2264
     32 H          63.8932   89.7954    9.5976 H       1  UNL1        0.1528
     33 O          64.8085   92.3809   10.0413 O.3     1  UNL1       -0.4291
     34 C          65.9705   93.0601   10.7034 C.3     1  UNL1        0.2447
     35 C          66.4885   94.3591   10.1609 C.ar    1  UNL1        0.0714
     36 C          67.3128   94.5299    8.9193 C.ar    1  UNL1        0.1053
     37 N          67.6069   95.9917    8.7557 N.ar    1  UNL1       -0.2350
     38 C          66.9643   96.7243    9.8961 C.ar    1  UNL1        0.1343
     39 S          66.2731   95.7152   10.7645 S.2     1  UNL1       -0.0652
     40 C          61.6469   88.3537   10.5631 C.3     1  UNL1        0.0485
     41 C          62.1569   86.9839   10.2261 C.ar    1  UNL1       -0.0204
     42 C          62.2552   85.9363   11.2950 C.ar    1  UNL1       -0.0042
     43 C          62.7653   84.5665   10.9580 C.ar    1  UNL1       -0.0003
     44 C          63.1770   84.2444    9.5521 C.ar    1  UNL1       -0.0000
     45 C          63.0787   85.2921    8.4832 C.ar    1  UNL1       -0.0003
     46 C          62.5686   86.6618    8.8202 C.ar    1  UNL1       -0.0042
@<TRIPOS>BOND
     1    15    16    1
     2    16    13    1
     3    13    14    1
     4    13     4    1
     5     4     5   ar
     6     5     6   ar
     7     6     7   ar
     8     7     8   ar
     9     8     9   ar
    10     9     1    1
    11     1     2    2
    12     1     3   am
    13     3    17    1
    14    17    18    1
    15    18    19    1
    16    19    20    1
    17    20    21    1
    18    21    22    1
    19    22    23    1
    20     3    24    1
    21    24    25    1
    22    25    26    1
    23    25    28    1
    24    28    40    1
    25    40    41    1
    26    41    42   ar
    27    42    43   ar
    28    43    44   ar
    29    44    45   ar
    30    45    46   ar
    31    28    29    1
    32    29    30   am
    33    30    31    2
    34    30    33    1
    35    33    34    1
    36    34    35    1
    37    35    36   ar
    38    36    37   ar
    39    37    38   ar
    40    38    39   ar
    41     9    10   ar
    42    10    11   ar
    43    11    12   ar
    44    12     4   ar
    45    11     6   ar
    46    23    18    1
    47    46    41   ar
    48    39    35   ar
    49    26    27    1
    50    29    32    1
@<TRIPOS>MOLECULE
*****
 46 50 0 0 0
SMALL
GASTEIGER

@<TRIPOS>ATOM
      1 C          59.7244   87.0982    8.0302 C.2     1  UNL1        0.2492
      2 O          58.4966   86.3955    7.5317 O.2     1  UNL1       -0.2699
      3 N          59.8585   88.5829    7.8638 N.am    1  UNL1       -0.2735
      4 C          63.4790   84.2835   12.3589 C.ar    1  UNL1        0.2924
      5 N          63.9527   84.0528   10.9545 N.ar    1  UNL1       -0.1946
      6 C          63.0058   84.7524   10.0250 C.ar    1  UNL1        0.1202
      7 C          62.9711   84.8712    8.5302 C.ar    1  UNL1        0.0225
      8 C          61.8773   85.6532    7.8653 C.ar    1  UNL1        0.0063
      9 C          60.8182   86.3163    8.6952 C.ar    1  UNL1        0.0567
     10 C          60.8530   86.1974   10.1901 C.ar    1  UNL1        0.0437
     11 C          61.9468   85.4154   10.8550 C.ar    1  UNL1        0.1662
     12 O          62.2392   85.1257   12.2974 O.2     1  UNL1       -0.4237
     13 N          64.1306   83.7634   13.6059 N.pl3   1  UNL1       -0.2619
     14 C          65.3324   84.4608   14.1710 C.3     1  UNL1        0.1166
     15 C          62.2734   81.9617   13.8399 C.3     1  UNL1        0.0233
     16 C          63.5803   82.5460   14.2878 C.3     1  UNL1        0.0952
     17 C          58.7646   89.3649    7.1988 C.3     1  UNL1        0.0937
     18 C          59.0912   90.3084    6.0794 C.3     1  UNL1        0.0199
     19 C          60.5057   90.4393    5.5974 C.3     1  UNL1        0.0017
     20 C          60.8323   91.3829    4.4780 C.3     1  UNL1        0.0001
     21 C          59.7444   92.1956    3.8406 C.3     1  UNL1        0.0000
     22 C          58.3300   92.0646    4.3226 C.3     1  UNL1        0.0001
     23 C          58.0035   91.1211    5.4420 C.3     1  UNL1        0.0017
     24 C          61.0863   89.2857    8.3623 C.3     1  UNL1        0.1245
     25 C          61.1389   89.7943    9.7725 C.3     1  UNL1        0.1484
     26 O          59.8693   89.9910   10.5467 O.3     1  UNL1       -0.3810
     27 H          59.1117   89.7445    9.9933 H       1  UNL1        0.2105
     28 C          62.4611   90.1063   10.4085 C.3     1  UNL1        0.1075
     29 N          63.2105   89.0355   11.1447 N.am    1  UNL1       -0.2695
     30 C          62.9669   88.8213   12.6091 C.2     1  UNL1        0.4020
     31 O          61.9740   89.6778   13.3375 O.2     1  UNL1       -0.2264
     32 H          63.8621   88.4733   10.6666 H       1  UNL1        0.1528
     33 O          63.7163   87.7505   13.3453 O.3     1  UNL1       -0.4291
     34 C          64.3277   88.0471   14.6825 C.3     1  UNL1        0.2447
     35 C          63.6672   87.5530   15.9354 C.ar    1  UNL1        0.0714
     36 C          63.1668   88.4057   17.0635 C.ar    1  UNL1        0.1053
     37 N          62.5815   87.4991   18.1054 N.ar    1  UNL1       -0.2350
     38 C          62.7201   86.0861   17.6213 C.ar    1  UNL1        0.1343
     39 S          63.3912   86.1194   16.2801 S.2     1  UNL1       -0.0652
     40 C          63.0339   91.4889   10.3083 C.3     1  UNL1        0.0485
     41 C          64.2889   91.8366   11.0526 C.ar    1  UNL1       -0.0204
     42 C          64.3466   91.6739   12.5426 C.ar    1  UNL1       -0.0042
     43 C          65.6017   92.0216   13.2870 C.ar    1  UNL1       -0.0003
     44 C          66.7989   92.5319   12.5413 C.ar    1  UNL1       -0.0000
     45 C          66.7412   92.6945   11.0513 C.ar    1  UNL1       -0.0003
     46 C          65.4862   92.3469   10.3070 C.ar    1  UNL1       -0.0042
@<TRIPOS>BOND
     1    15    16    1
     2    16    13    1
     3    13    14    1
     4    13     4    1
     5     4     5   ar
     6     5     6   ar
     7     6     7   ar
     8     7     8   ar
     9     8     9   ar
    10     9     1    1
    11     1     2    2
    12     1     3   am
    13     3    17    1
    14    17    18    1
    15    18    19    1
    16    19    20    1
    17    20    21    1
    18    21    22    1
    19    22    23    1
    20     3    24    1
    21    24    25    1
    22    25    26    1
    23    25    28    1
    24    28    40    1
    25    40    41    1
    26    41    42   ar
    27    42    43   ar
    28    43    44   ar
    29    44    45   ar
    30    45    46   ar
    31    28    29    1
    32    29    30   am
    33    30    31    2
    34    30    33    1
    35    33    34    1
    36    34    35    1
    37    35    36   ar
    38    36    37   ar
    39    37    38   ar
    40    38    39   ar
    41     9    10   ar
    42    10    11   ar
    43    11    12   ar
    44    12     4   ar
    45    11     6   ar
    46    23    18    1
    47    46    41   ar
    48    39    35   ar
    49    26    27    1
    50    29    32    1
@<TRIPOS>MOLECULE
*****
 46 50 0 0 0
SMALL
GASTEIGER

@<TRIPOS>ATOM
      1 C          65.3657   91.5956   14.2167 C.2     1  UNL1        0.2492
      2 O          66.0403   91.6652   15.5547 O.2     1  UNL1       -0.2699
      3 N          64.0348   90.9169   14.0822 N.am    1  UNL1       -0.2735
      4 C          66.7153   95.2957    9.1923 C.ar    1  UNL1        0.2924
      5 N          67.7467   94.2287    9.4102 N.ar    1  UNL1       -0.1946
      6 C          67.3348   93.4231   10.6066 C.ar    1  UNL1        0.1202
      7 C          67.9646   92.2449   11.2885 C.ar    1  UNL1        0.0225
      8 C          67.3082   91.6357   12.4918 C.ar    1  UNL1        0.0063
      9 C          66.0221   92.2048   13.0133 C.ar    1  UNL1        0.0567
     10 C          65.3922   93.3831   12.3314 C.ar    1  UNL1        0.0437
     11 C          66.0486   93.9922   11.1280 C.ar    1  UNL1        0.1662
     12 O          65.6657   95.1495   10.2540 O.2     1  UNL1       -0.4237
     13 N          66.7306   96.3277    8.1038 N.pl3   1  UNL1       -0.2619
     14 C          68.0369   96.8554    7.5889 C.3     1  UNL1        0.1166
     15 C          65.2137   96.7982    6.0477 C.3     1  UNL1        0.0233
     16 C          65.4396   96.8320    7.5302 C.3     1  UNL1        0.0952
     17 C          63.3785   90.3077   15.2856 C.3     1  UNL1        0.0937
     18 C          63.5918   88.8572   15.6025 C.3     1  UNL1        0.0199
     19 C          64.5490   88.0433   14.7829 C.3     1  UNL1        0.0017
     20 C          64.7623   86.5928   15.0998 C.3     1  UNL1        0.0001
     21 C          64.0185   85.9561   16.2362 C.3     1  UNL1        0.0000
     22 C          63.0613   86.7699   17.0556 C.3     1  UNL1        0.0001
     23 C          62.8480   88.2204   16.7388 C.3     1  UNL1        0.0017
     24 C          63.3603   90.8474   12.7442 C.3     1  UNL1        0.1245
     25 C          62.3729   89.7550   12.4580 C.3     1  UNL1        0.1484
     26 O          60.9871   89.8285   13.0273 O.3     1  UNL1       -0.3810
     27 H          60.8957   90.6393   13.5520 H       1  UNL1        0.2105
     28 C          62.7713   88.5892   11.6024 C.3     1  UNL1        0.1075
     29 N          63.2122   87.3058   12.2416 N.am    1  UNL1       -0.2695
     30 C          62.2527   86.1591   12.3611 C.2     1  UNL1        0.4020
     31 O          60.8523   86.2957   11.8414 O.2     1  UNL1       -0.2264
     32 H          64.1314   87.2161   12.5828 H       1  UNL1        0.1528
     33 O          62.6936   84.8756   13.0004 O.3     1  UNL1       -0.4291
     34 C          63.0512   83.6961   12.1455 C.3     1  UNL1        0.2447
     35 C          62.6470   82.3145   12.5669 C.ar    1  UNL1        0.0714
     36 C          61.6822   81.9741   13.6640 C.ar    1  UNL1        0.1053
     37 N          61.5754   80.4799   13.7404 N.ar    1  UNL1       -0.2350
     38 C          62.4743   79.8966   12.6906 C.ar    1  UNL1        0.1343
     39 S          63.1365   81.0305   11.9653 S.2     1  UNL1       -0.0652
     40 C          62.7289   88.7067   10.1076 C.3     1  UNL1        0.0485
     41 C          61.6258   88.0469    9.3344 C.ar    1  UNL1       -0.0204
     42 C          61.8254   86.6728    8.7672 C.ar    1  UNL1       -0.0042
     43 C          60.7223   86.0130    7.9940 C.ar    1  UNL1       -0.0003
     44 C          59.4195   86.7274    7.7880 C.ar    1  UNL1       -0.0000
     45 C          59.2199   88.1016    8.3553 C.ar    1  UNL1       -0.0003
     46 C          60.3231   88.7613    9.1285 C.ar    1  UNL1       -0.0042
@<TRIPOS>BOND
     1    15    16    1
     2    16    13    1
     3    13    14    1
     4    13     4    1
     5     4     5   ar
     6     5     6   ar
     7     6     7   ar
     8     7     8   ar
     9     8     9   ar
    10     9     1    1
    11     1     2    2
    12     1     3   am
    13     3    17    1
    14    17    18    1
    15    18    19    1
    16    19    20    1
    17    20    21    1
    18    21    22    1
    19    22    23    1
    20     3    24    1
    21    24    25    1
    22    25    26    1
    23    25    28    1
    24    28    40    1
    25    40    41    1
    26    41    42   ar
    27    42    43   ar
    28    43    44   ar
    29    44    45   ar
    30    45    46   ar
    31    28    29    1
    32    29    30   am
    33    30    31    2
    34    30    33    1
    35    33    34    1
    36    34    35    1
    37    35    36   ar
    38    36    37   ar
    39    37    38   ar
    40    38    39   ar
    41     9    10   ar
    42    10    11   ar
    43    11    12   ar
    44    12     4   ar
    45    11     6   ar
    46    23    18    1
    47    46    41   ar
    48    39    35   ar
    49    26    27    1
    50    29    32    1
@<TRIPOS>MOLECULE
*****
 46 50 0 0 0
SMALL
GASTEIGER

@<TRIPOS>ATOM
      1 C          64.8566   91.6558   14.2491 C.2     1  UNL1        0.2492
      2 O          65.3216   92.7694   15.1400 O.2     1  UNL1       -0.2699
      3 N          64.8714   91.8311   12.7595 N.am    1  UNL1       -0.2735
      4 C          63.6396   85.4820   15.3264 C.ar    1  UNL1        0.2924
      5 N          63.0757   86.3710   16.3949 N.ar    1  UNL1       -0.1946
      6 C          63.4167   87.7894   16.0456 C.ar    1  UNL1        0.1202
      7 C          63.1219   89.0906   16.7312 C.ar    1  UNL1        0.0225
      8 C          63.6019   90.3793   16.1323 C.ar    1  UNL1        0.0063
      9 C          64.3766   90.3669   14.8480 C.ar    1  UNL1        0.0567
     10 C          64.6714   89.0658   14.1624 C.ar    1  UNL1        0.0437
     11 C          64.1915   87.7770   14.7613 C.ar    1  UNL1        0.1662
     12 O          64.3293   86.3510   14.3168 O.2     1  UNL1       -0.4237
     13 N          63.5328   83.9867   15.2764 N.pl3   1  UNL1       -0.2619
     14 C          64.7748   83.1473   15.2249 C.3     1  UNL1        0.1166
     15 C          61.9995   81.9933   14.6242 C.3     1  UNL1        0.0233
     16 C          62.1838   83.3307   15.2778 C.3     1  UNL1        0.0952
     17 C          65.3514   93.1199   12.1607 C.3     1  UNL1        0.0937
     18 C          66.4068   93.1046   11.0949 C.3     1  UNL1        0.0199
     19 C          67.4841   92.0611   11.1212 C.3     1  UNL1        0.0017
     20 C          68.5395   92.0458   10.0554 C.3     1  UNL1        0.0001
     21 C          68.5177   93.0740    8.9634 C.3     1  UNL1        0.0000
     22 C          67.4404   94.1174    8.9372 C.3     1  UNL1        0.0001
     23 C          66.3850   94.1327   10.0029 C.3     1  UNL1        0.0017
     24 C          64.4063   90.7175   11.8686 C.3     1  UNL1        0.1245
     25 C          63.2055   90.9111   10.9907 C.3     1  UNL1        0.1484
     26 O          63.1943   92.0066    9.9662 O.3     1  UNL1       -0.3810
     27 H          64.0333   92.4920   10.0027 H       1  UNL1        0.2105
     28 C          62.0160   90.0091   11.1374 C.3     1  UNL1        0.1075
     29 N          62.1164   88.7647   11.9689 N.am    1  UNL1       -0.2695
     30 C          62.4968   87.4630   11.3279 C.2     1  UNL1        0.4020
     31 O          62.7769   87.4058    9.8554 O.2     1  UNL1       -0.2264
     32 H          61.9326   88.8022   12.9354 H       1  UNL1        0.1528
     33 O          62.5972   86.2186   12.1594 O.3     1  UNL1       -0.4291
     34 C          62.0032   84.9342   11.6618 C.3     1  UNL1        0.2447
     35 C          62.8990   83.8156   11.2190 C.ar    1  UNL1        0.0714
     36 C          64.0884   83.9441   10.3139 C.ar    1  UNL1        0.1053
     37 N          64.6872   82.5800   10.1389 N.ar    1  UNL1       -0.2350
     38 C          63.8680   81.6084   10.9357 C.ar    1  UNL1        0.1343
     39 S          62.7628   82.3721   11.6032 S.2     1  UNL1       -0.0652
     40 C          60.7261   90.3516   10.4527 C.3     1  UNL1        0.0485
     41 C          60.1410   89.4109    9.4414 C.ar    1  UNL1       -0.0204
     42 C          59.6773   88.0486    9.8644 C.ar    1  UNL1       -0.0042
     43 C          59.0922   87.1079    8.8531 C.ar    1  UNL1       -0.0003
     44 C          58.9709   87.5296    7.4187 C.ar    1  UNL1       -0.0000
     45 C          59.4346   88.8919    6.9957 C.ar    1  UNL1       -0.0003
     46 C          60.0197   89.8326    8.0070 C.ar    1  UNL1       -0.0042
@<TRIPOS>BOND
     1    15    16    1
     2    16    13    1
     3    13    14    1
     4    13     4    1
     5     4     5   ar
     6     5     6   ar
     7     6     7   ar
     8     7     8   ar
     9     8     9   ar
    10     9     1    1
    11     1     2    2
    12     1     3   am
    13     3    17    1
    14    17    18    1
    15    18    19    1
    16    19    20    1
    17    20    21    1
    18    21    22    1
    19    22    23    1
    20     3    24    1
    21    24    25    1
    22    25    26    1
    23    25    28    1
    24    28    40    1
    25    40    41    1
    26    41    42   ar
    27    42    43   ar
    28    43    44   ar
    29    44    45   ar
    30    45    46   ar
    31    28    29    1
    32    29    30   am
    33    30    31    2
    34    30    33    1
    35    33    34    1
    36    34    35    1
    37    35    36   ar
    38    36    37   ar
    39    37    38   ar
    40    38    39   ar
    41     9    10   ar
    42    10    11   ar
    43    11    12   ar
    44    12     4   ar
    45    11     6   ar
    46    23    18    1
    47    46    41   ar
    48    39    35   ar
    49    26    27    1
    50    29    32    1
@<TRIPOS>MOLECULE
*****
 46 50 0 0 0
SMALL
GASTEIGER

@<TRIPOS>ATOM
      1 C          63.5612   88.7665   16.3052 C.2     1  UNL1        0.2492
      2 O          63.5461   89.3198   17.6994 O.2     1  UNL1       -0.2699
      3 N          63.8339   89.6728   15.1416 N.am    1  UNL1       -0.2735
      4 C          63.3787   82.9028   13.7871 C.ar    1  UNL1        0.2924
      5 N          62.6866   82.9764   15.1158 N.ar    1  UNL1       -0.1946
      6 C          62.7883   84.3876   15.6140 C.ar    1  UNL1        0.1202
      7 C          62.2909   85.0486   16.8653 C.ar    1  UNL1        0.0225
      8 C          62.5486   86.5082   17.0957 C.ar    1  UNL1        0.0063
      9 C          63.3036   87.3068   16.0748 C.ar    1  UNL1        0.0567
     10 C          63.8009   86.6458   14.8235 C.ar    1  UNL1        0.0437
     11 C          63.5432   85.1862   14.5931 C.ar    1  UNL1        0.1662
     12 O          63.9081   84.2686   13.4640 O.2     1  UNL1       -0.4237
     13 N          63.5170   81.6785   12.9316 N.pl3   1  UNL1       -0.2619
     14 C          62.7548   80.4332   13.2755 C.3     1  UNL1        0.1166
     15 C          64.0124   82.4577   10.5032 C.3     1  UNL1        0.0233
     16 C          64.4176   81.6994   11.7323 C.3     1  UNL1        0.0952
     17 C          64.0916   91.1325   15.3720 C.3     1  UNL1        0.0937
     18 C          65.4803   91.6808   15.2283 C.3     1  UNL1        0.0199
     19 C          66.0738   92.5164   16.3236 C.3     1  UNL1        0.0017
     20 C          67.4626   93.0647   16.1799 C.3     1  UNL1        0.0001
     21 C          68.2579   92.7773   14.9409 C.3     1  UNL1        0.0000
     22 C          67.6644   91.9417   13.8457 C.3     1  UNL1        0.0001
     23 C          66.2756   91.3934   13.9894 C.3     1  UNL1        0.0017
     24 C          63.8490   89.1195   13.7474 C.3     1  UNL1        0.1245
     25 C          62.6836   89.3575   12.8334 C.3     1  UNL1        0.1484
     26 O          61.3871   89.8683   13.3886 O.3     1  UNL1       -0.3810
     27 H          61.4717   89.9906   14.3471 H       1  UNL1        0.2105
     28 C          62.8148   89.0847   11.3643 C.3     1  UNL1        0.1075
     29 N          63.4092   90.1226   10.4589 N.am    1  UNL1       -0.2695
     30 C          63.6430   91.5148   10.9657 C.2     1  UNL1        0.4020
     31 O          63.2824   91.8693   12.3779 O.2     1  UNL1       -0.2264
     32 H          63.6459   89.8899    9.5320 H       1  UNL1        0.1528
     33 O          64.2375   92.5526   10.0603 O.3     1  UNL1       -0.4291
     34 C          65.2536   93.5191   10.5927 C.3     1  UNL1        0.2447
     35 C          66.6719   93.4586   10.1084 C.ar    1  UNL1        0.0714
     36 C          67.4763   94.6134    9.5890 C.ar    1  UNL1        0.1053
     37 N          68.8364   94.1013    9.2180 N.ar    1  UNL1       -0.2350
     38 C          68.8728   92.6300    9.5080 C.ar    1  UNL1        0.1343
     39 S          67.5350   92.2328   10.0583 S.2     1  UNL1       -0.0652
     40 C          62.3515   87.7742   10.8005 C.3     1  UNL1        0.0485
     41 C          61.3284   87.7492    9.7038 C.ar    1  UNL1       -0.0204
     42 C          60.7342   89.0322    9.2031 C.ar    1  UNL1       -0.0042
     43 C          59.7110   89.0072    8.1065 C.ar    1  UNL1       -0.0003
     44 C          59.2822   87.6992    7.5106 C.ar    1  UNL1       -0.0000
     45 C          59.8764   86.4162    8.0113 C.ar    1  UNL1       -0.0003
     46 C          60.8995   86.4412    9.1079 C.ar    1  UNL1       -0.0042
@<TRIPOS>BOND
     1    15    16    1
     2    16    13    1
     3    13    14    1
     4    13     4    1
     5     4     5   ar
     6     5     6   ar
     7     6     7   ar
     8     7     8   ar
     9     8     9   ar
    10     9     1    1
    11     1     2    2
    12     1     3   am
    13     3    17    1
    14    17    18    1
    15    18    19    1
    16    19    20    1
    17    20    21    1
    18    21    22    1
    19    22    23    1
    20     3    24    1
    21    24    25    1
    22    25    26    1
    23    25    28    1
    24    28    40    1
    25    40    41    1
    26    41    42   ar
    27    42    43   ar
    28    43    44   ar
    29    44    45   ar
    30    45    46   ar
    31    28    29    1
    32    29    30   am
    33    30    31    2
    34    30    33    1
    35    33    34    1
    36    34    35    1
    37    35    36   ar
    38    36    37   ar
    39    37    38   ar
    40    38    39   ar
    41     9    10   ar
    42    10    11   ar
    43    11    12   ar
    44    12     4   ar
    45    11     6   ar
    46    23    18    1
    47    46    41   ar
    48    39    35   ar
    49    26    27    1
    50    29    32    1
@<TRIPOS>MOLECULE
*****
 46 50 0 0 0
SMALL
GASTEIGER

@<TRIPOS>ATOM
      1 C          63.8858   89.0460   13.8357 C.2     1  UNL1        0.2492
      2 O          64.5414   89.9017   14.8788 O.2     1  UNL1       -0.2699
      3 N          63.2578   89.6812   12.6307 N.am    1  UNL1       -0.2735
      4 C          63.1683   82.7863   12.8069 C.ar    1  UNL1        0.2924
      5 N          63.6716   83.0849   14.1880 N.ar    1  UNL1       -0.1946
      6 C          63.8032   84.5731   14.3218 C.ar    1  UNL1        0.1202
      7 C          64.2528   85.4428   15.4582 C.ar    1  UNL1        0.0225
      8 C          64.2803   86.9337   15.2961 C.ar    1  UNL1        0.0063
      9 C          63.8583   87.5550   13.9977 C.ar    1  UNL1        0.0567
     10 C          63.4087   86.6853   12.8613 C.ar    1  UNL1        0.0437
     11 C          63.3812   85.1944   13.0234 C.ar    1  UNL1        0.1662
     12 O          62.9887   84.0901   12.0871 O.2     1  UNL1       -0.4237
     13 N          62.8928   81.4234   12.2443 N.pl3   1  UNL1       -0.2619
     14 C          63.1860   81.1340   10.8020 C.3     1  UNL1        0.1166
     15 C          61.1234   80.6363   13.9762 C.3     1  UNL1        0.0233
     16 C          62.3241   80.3498   13.1240 C.3     1  UNL1        0.0952
     17 C          63.2854   91.1723   12.4687 C.3     1  UNL1        0.0937
     18 C          64.5492   91.8568   12.0396 C.3     1  UNL1        0.0199
     19 C          64.7398   92.2485   10.6042 C.3     1  UNL1        0.0017
     20 C          66.0037   92.9331   10.1751 C.3     1  UNL1        0.0001
     21 C          67.0769   93.2259   11.1814 C.3     1  UNL1        0.0000
     22 C          66.8862   92.8342   12.6167 C.3     1  UNL1        0.0001
     23 C          65.6224   92.1496   13.0458 C.3     1  UNL1        0.0017
     24 C          62.6022   88.8255   11.5877 C.3     1  UNL1        0.1245
     25 C          61.2088   89.1381   11.1284 C.3     1  UNL1        0.1484
     26 O          60.3122   89.9889   11.9782 O.3     1  UNL1       -0.3810
     27 H          60.7843   90.2517   12.7838 H       1  UNL1        0.2105
     28 C          60.7121   88.5998    9.8194 C.3     1  UNL1        0.1075
     29 N          60.5879   89.5094    8.6331 N.am    1  UNL1       -0.2695
     30 C          59.4909   89.2927    7.6334 C.2     1  UNL1        0.4020
     31 O          58.5179   88.1663    7.8200 O.2     1  UNL1       -0.2264
     32 H          61.2265   90.2487    8.5106 H       1  UNL1        0.1528
     33 O          59.3666   90.2023    6.4471 O.3     1  UNL1       -0.4291
     34 C          60.5396   90.4107    5.5358 C.3     1  UNL1        0.2447
     35 C          60.4739   91.4476    4.4540 C.ar    1  UNL1        0.0714
     36 C          61.5965   91.8406    3.5398 C.ar    1  UNL1        0.1053
     37 N          61.0904   92.9095    2.6172 N.ar    1  UNL1       -0.2350
     38 C          59.6551   93.1773    2.9610 C.ar    1  UNL1        0.1343
     39 S          59.2740   92.2737    4.0962 S.2     1  UNL1       -0.0652
     40 C          60.3397   87.1520    9.6967 C.3     1  UNL1        0.0485
     41 C          61.1172   86.2525    8.7822 C.ar    1  UNL1       -0.0204
     42 C          62.5314   85.8825    9.1183 C.ar    1  UNL1       -0.0042
     43 C          63.3089   84.9830    8.2039 C.ar    1  UNL1       -0.0003
     44 C          62.6722   84.4533    6.9533 C.ar    1  UNL1       -0.0000
     45 C          61.2580   84.8233    6.6171 C.ar    1  UNL1       -0.0003
     46 C          60.4805   85.7228    7.5316 C.ar    1  UNL1       -0.0042
@<TRIPOS>BOND
     1    15    16    1
     2    16    13    1
     3    13    14    1
     4    13     4    1
     5     4     5   ar
     6     5     6   ar
     7     6     7   ar
     8     7     8   ar
     9     8     9   ar
    10     9     1    1
    11     1     2    2
    12     1     3   am
    13     3    17    1
    14    17    18    1
    15    18    19    1
    16    19    20    1
    17    20    21    1
    18    21    22    1
    19    22    23    1
    20     3    24    1
    21    24    25    1
    22    25    26    1
    23    25    28    1
    24    28    40    1
    25    40    41    1
    26    41    42   ar
    27    42    43   ar
    28    43    44   ar
    29    44    45   ar
    30    45    46   ar
    31    28    29    1
    32    29    30   am
    33    30    31    2
    34    30    33    1
    35    33    34    1
    36    34    35    1
    37    35    36   ar
    38    36    37   ar
    39    37    38   ar
    40    38    39   ar
    41     9    10   ar
    42    10    11   ar
    43    11    12   ar
    44    12     4   ar
    45    11     6   ar
    46    23    18    1
    47    46    41   ar
    48    39    35   ar
    49    26    27    1
    50    29    32    1
@<TRIPOS>MOLECULE
*****
 46 50 0 0 0
SMALL
GASTEIGER

@<TRIPOS>ATOM
      1 C          61.9256   89.0964   10.4403 C.2     1  UNL1        0.2492
      2 O          60.9207   89.5439    9.4205 O.2     1  UNL1       -0.2699
      3 N          61.9433   87.6685   10.8995 N.am    1  UNL1       -0.2735
      4 C          66.0380   92.1434   14.2562 C.ar    1  UNL1        0.2924
      5 N          65.8670   92.8314   12.9343 N.ar    1  UNL1       -0.1946
      6 C          64.8872   92.0376   12.1219 C.ar    1  UNL1        0.1202
      7 C          64.3346   92.2358   10.7416 C.ar    1  UNL1        0.0225
      8 C          63.3474   91.2554   10.1811 C.ar    1  UNL1        0.0063
      9 C          62.9128   90.0768   11.0009 C.ar    1  UNL1        0.0567
     10 C          63.4654   89.8787   12.3812 C.ar    1  UNL1        0.0437
     11 C          64.4526   90.8591   12.9417 C.ar    1  UNL1        0.1662
     12 O          65.1639   90.9244   14.2607 O.2     1  UNL1       -0.4237
     13 N          66.9270   92.5950   15.3768 N.pl3   1  UNL1       -0.2619
     14 C          66.3871   92.6836   16.7734 C.3     1  UNL1        0.1166
     15 C          69.0460   93.9854   15.9483 C.3     1  UNL1        0.0233
     16 C          68.3560   92.9581   15.1007 C.3     1  UNL1        0.0952
     17 C          60.9561   86.6881   10.3389 C.3     1  UNL1        0.0937
     18 C          61.2189   86.0327    9.0155 C.3     1  UNL1        0.0199
     19 C          62.5841   85.4957    8.7025 C.3     1  UNL1        0.0017
     20 C          62.8468   84.8403    7.3790 C.3     1  UNL1        0.0001
     21 C          61.7445   84.7220    6.3687 C.3     1  UNL1        0.0000
     22 C          60.3794   85.2590    6.6817 C.3     1  UNL1        0.0001
     23 C          60.1166   85.9144    8.0051 C.3     1  UNL1        0.0017
     24 C          62.9482   87.2210   11.9192 C.3     1  UNL1        0.1245
     25 C          62.9455   85.8007   12.4018 C.3     1  UNL1        0.1484
     26 O          61.9625   84.8186   11.8370 O.3     1  UNL1       -0.3810
     27 H          61.4065   85.2610   11.1768 H       1  UNL1        0.2105
     28 C          63.9259   85.3627   13.4492 C.3     1  UNL1        0.1075
     29 N          64.2201   83.9039   13.6377 N.am    1  UNL1       -0.2695
     30 C          63.2257   83.0220   14.3329 C.2     1  UNL1        0.4020
     31 O          61.9370   83.5988   14.8395 O.2     1  UNL1       -0.2264
     32 H          65.0659   83.5253   13.3052 H       1  UNL1        0.1528
     33 O          63.5199   81.5632   14.5215 O.3     1  UNL1       -0.4291
     34 C          62.6982   80.5335   13.8042 C.3     1  UNL1        0.2447
     35 C          62.8168   80.3828   12.3165 C.ar    1  UNL1        0.0714
     36 C          62.6304   79.1121   11.5413 C.ar    1  UNL1        0.1053
     37 N          62.8410   79.4203   10.0885 N.ar    1  UNL1       -0.2350
     38 C          63.1575   80.8814    9.9657 C.ar    1  UNL1        0.1343
     39 S          63.1426   81.4762   11.3427 S.2     1  UNL1       -0.0652
     40 C          64.6121   86.3833   14.3079 C.3     1  UNL1        0.0485
     41 C          63.9516   86.8744   15.5619 C.ar    1  UNL1       -0.0204
     42 C          63.5252   85.8974   16.6172 C.ar    1  UNL1       -0.0042
     43 C          62.8648   86.3885   17.8712 C.ar    1  UNL1       -0.0003
     44 C          62.6307   87.8567   18.0700 C.ar    1  UNL1       -0.0000
     45 C          63.0571   88.8338   17.0148 C.ar    1  UNL1       -0.0003
     46 C          63.7175   88.3426   15.7607 C.ar    1  UNL1       -0.0042
@<TRIPOS>BOND
     1    15    16    1
     2    16    13    1
     3    13    14    1
     4    13     4    1
     5     4     5   ar
     6     5     6   ar
     7     6     7   ar
     8     7     8   ar
     9     8     9   ar
    10     9     1    1
    11     1     2    2
    12     1     3   am
    13     3    17    1
    14    17    18    1
    15    18    19    1
    16    19    20    1
    17    20    21    1
    18    21    22    1
    19    22    23    1
    20     3    24    1
    21    24    25    1
    22    25    26    1
    23    25    28    1
    24    28    40    1
    25    40    41    1
    26    41    42   ar
    27    42    43   ar
    28    43    44   ar
    29    44    45   ar
    30    45    46   ar
    31    28    29    1
    32    29    30   am
    33    30    31    2
    34    30    33    1
    35    33    34    1
    36    34    35    1
    37    35    36   ar
    38    36    37   ar
    39    37    38   ar
    40    38    39   ar
    41     9    10   ar
    42    10    11   ar
    43    11    12   ar
    44    12     4   ar
    45    11     6   ar
    46    23    18    1
    47    46    41   ar
    48    39    35   ar
    49    26    27    1
    50    29    32    1
@<TRIPOS>MOLECULE
*****
 46 50 0 0 0
SMALL
GASTEIGER

@<TRIPOS>ATOM
      1 C          61.8348   88.9790   10.4288 C.2     1  UNL1        0.2492
      2 O          60.8188   89.3910    9.4050 O.2     1  UNL1       -0.2699
      3 N          61.9126   87.5492   10.8752 N.am    1  UNL1       -0.2735
      4 C          65.7045   93.9974   11.2024 C.ar    1  UNL1        0.2924
      5 N          65.5739   93.1780   12.4520 N.ar    1  UNL1       -0.1946
      6 C          64.6494   92.0331   12.1610 C.ar    1  UNL1        0.1202
      7 C          64.1520   90.9033   13.0130 C.ar    1  UNL1        0.0225
      8 C          63.2138   89.8853   12.4356 C.ar    1  UNL1        0.0063
      9 C          62.7730   89.9971   11.0062 C.ar    1  UNL1        0.0567
     10 C          63.2704   91.1270   10.1542 C.ar    1  UNL1        0.0437
     11 C          64.2086   92.1450   10.7316 C.ar    1  UNL1        0.1662
     12 O          64.8607   93.3590   10.1392 O.2     1  UNL1       -0.4237
     13 N          66.5333   95.2376   11.0439 N.pl3   1  UNL1       -0.2619
     14 C          66.4109   96.3537   12.0385 C.3     1  UNL1        0.1166
     15 C          67.9938   94.1298    9.2028 C.3     1  UNL1        0.0233
     16 C          67.4845   95.3616    9.8907 C.3     1  UNL1        0.0952
     17 C          60.9744   86.5311   10.2978 C.3     1  UNL1        0.0937
     18 C          61.2672   85.9135    8.9625 C.3     1  UNL1        0.0199
     19 C          60.1876   85.8235    7.9249 C.3     1  UNL1        0.0017
     20 C          60.4804   85.2060    6.5896 C.3     1  UNL1        0.0001
     21 C          61.8527   84.6784    6.2920 C.3     1  UNL1        0.0000
     22 C          62.9322   84.7684    7.3296 C.3     1  UNL1        0.0001
     23 C          62.6394   85.3860    8.6648 C.3     1  UNL1        0.0017
     24 C          62.9286   87.1373   11.8990 C.3     1  UNL1        0.1245
     25 C          62.9656   85.7207   12.3911 C.3     1  UNL1        0.1484
     26 O          62.0160   84.7057   11.8272 O.3     1  UNL1       -0.3810
     27 H          61.4510   85.1269   11.1607 H       1  UNL1        0.2105
     28 C          63.9522   85.3193   13.4473 C.3     1  UNL1        0.1075
     29 N          64.2589   83.8686   13.6746 N.am    1  UNL1       -0.2695
     30 C          63.2467   82.9832   14.3388 C.2     1  UNL1        0.4020
     31 O          61.9277   83.5483   14.7759 O.2     1  UNL1       -0.2264
     32 H          65.1246   83.4977   13.3877 H       1  UNL1        0.1528
     33 O          63.5534   81.5325   14.5661 O.3     1  UNL1       -0.4291
     34 C          62.7634   80.4777   13.8497 C.3     1  UNL1        0.2447
     35 C          62.8559   80.3555   12.3576 C.ar    1  UNL1        0.0714
     36 C          62.6357   79.1042   11.5601 C.ar    1  UNL1        0.1053
     37 N          62.8285   79.4384   10.1106 N.ar    1  UNL1       -0.2350
     38 C          63.1678   80.8962   10.0121 C.ar    1  UNL1        0.1343
     39 S          63.1847   81.4630   11.4009 S.2     1  UNL1       -0.0652
     40 C          64.6322   86.3684   14.2761 C.3     1  UNL1        0.0485
     41 C          63.9726   86.8854   15.5201 C.ar    1  UNL1       -0.0204
     42 C          63.5111   85.9273   16.5779 C.ar    1  UNL1       -0.0042
     43 C          62.8515   86.4443   17.8220 C.ar    1  UNL1       -0.0003
     44 C          62.6535   87.9194   18.0082 C.ar    1  UNL1       -0.0000
     45 C          63.1150   88.8775   16.9505 C.ar    1  UNL1       -0.0003
     46 C          63.7746   88.3605   15.7064 C.ar    1  UNL1       -0.0042
@<TRIPOS>BOND
     1    15    16    1
     2    16    13    1
     3    13    14    1
     4    13     4    1
     5     4     5   ar
     6     5     6   ar
     7     6     7   ar
     8     7     8   ar
     9     8     9   ar
    10     9     1    1
    11     1     2    2
    12     1     3   am
    13     3    17    1
    14    17    18    1
    15    18    19    1
    16    19    20    1
    17    20    21    1
    18    21    22    1
    19    22    23    1
    20     3    24    1
    21    24    25    1
    22    25    26    1
    23    25    28    1
    24    28    40    1
    25    40    41    1
    26    41    42   ar
    27    42    43   ar
    28    43    44   ar
    29    44    45   ar
    30    45    46   ar
    31    28    29    1
    32    29    30   am
    33    30    31    2
    34    30    33    1
    35    33    34    1
    36    34    35    1
    37    35    36   ar
    38    36    37   ar
    39    37    38   ar
    40    38    39   ar
    41     9    10   ar
    42    10    11   ar
    43    11    12   ar
    44    12     4   ar
    45    11     6   ar
    46    23    18    1
    47    46    41   ar
    48    39    35   ar
    49    26    27    1
    50    29    32    1
@<TRIPOS>MOLECULE
*****
 46 50 0 0 0
SMALL
GASTEIGER

@<TRIPOS>ATOM
      1 C          63.4174   86.3618   15.5949 C.2     1  UNL1        0.2492
      2 O          63.1842   85.5809   16.8542 O.2     1  UNL1       -0.2699
      3 N          63.3763   85.6698   14.2648 N.am    1  UNL1       -0.2735
      4 C          65.9778   92.1586   14.8208 C.ar    1  UNL1        0.2924
      5 N          64.7577   92.1841   15.6931 N.ar    1  UNL1       -0.1946
      6 C          64.2403   90.7808   15.8076 C.ar    1  UNL1        0.1202
      7 C          63.0657   90.2007   16.5381 C.ar    1  UNL1        0.0225
      8 C          62.7914   88.7277   16.4672 C.ar    1  UNL1        0.0063
      9 C          63.6918   87.8349   15.6658 C.ar    1  UNL1        0.0567
     10 C          64.8664   88.4150   14.9353 C.ar    1  UNL1        0.0437
     11 C          65.1406   89.8880   15.0062 C.ar    1  UNL1        0.1662
     12 O          66.2144   90.7395   14.3963 O.2     1  UNL1       -0.4237
     13 N          66.8143   93.3440   14.4400 N.pl3   1  UNL1       -0.2619
     14 C          66.3435   94.2806   13.3671 C.3     1  UNL1        0.1166
     15 C          68.7110   92.5397   16.0229 C.3     1  UNL1        0.0233
     16 C          68.1216   93.5928   15.1321 C.3     1  UNL1        0.0952
     17 C          63.1019   84.1967   14.1939 C.3     1  UNL1        0.0937
     18 C          63.3428   83.4496   12.9156 C.3     1  UNL1        0.0199
     19 C          64.3835   83.9326   11.9493 C.3     1  UNL1        0.0017
     20 C          64.6243   83.1856   10.6711 C.3     1  UNL1        0.0001
     21 C          63.8244   81.9555   10.3591 C.3     1  UNL1        0.0000
     22 C          62.7837   81.4726   11.3254 C.3     1  UNL1        0.0001
     23 C          62.5429   82.2197   12.6037 C.3     1  UNL1        0.0017
     24 C          63.6095   86.4507   13.0055 C.3     1  UNL1        0.1245
     25 C          62.4441   86.8958   12.1723 C.3     1  UNL1        0.1484
     26 O          61.2103   86.0464   12.0941 O.3     1  UNL1       -0.3810
     27 H          61.3303   85.2510   12.6361 H       1  UNL1        0.2105
     28 C          62.5128   88.1902   11.4176 C.3     1  UNL1        0.1075
     29 N          63.3758   89.3082   11.9229 N.am    1  UNL1       -0.2695
     30 C          63.5321   90.5604   11.1120 C.2     1  UNL1        0.4020
     31 O          62.8254   90.6946    9.7958 O.2     1  UNL1       -0.2264
     32 H          63.8397   89.2201   12.7868 H       1  UNL1        0.1528
     33 O          64.3951   91.6784   11.6174 O.3     1  UNL1       -0.4291
     34 C          64.7817   92.8007   10.7004 C.3     1  UNL1        0.2447
     35 C          66.2183   92.9925   10.3141 C.ar    1  UNL1        0.0714
     36 C          67.3642   92.1107   10.7138 C.ar    1  UNL1        0.1053
     37 N          68.6154   92.6730   10.1070 N.ar    1  UNL1       -0.2350
     38 C          68.2430   93.9024    9.3323 C.ar    1  UNL1        0.1343
     39 S          66.7615   94.0998    9.4603 S.2     1  UNL1       -0.0652
     40 C          61.7184   88.3667   10.1575 C.3     1  UNL1        0.0485
     41 C          61.6224   87.2435    9.1679 C.ar    1  UNL1       -0.0204
     42 C          60.3382   87.0000    8.4320 C.ar    1  UNL1       -0.0042
     43 C          60.2421   85.8768    7.4425 C.ar    1  UNL1       -0.0003
     44 C          61.4302   84.9971    7.1889 C.ar    1  UNL1       -0.0000
     45 C          62.7144   85.2405    7.9248 C.ar    1  UNL1       -0.0003
     46 C          62.8105   86.3637    8.9143 C.ar    1  UNL1       -0.0042
@<TRIPOS>BOND
     1    15    16    1
     2    16    13    1
     3    13    14    1
     4    13     4    1
     5     4     5   ar
     6     5     6   ar
     7     6     7   ar
     8     7     8   ar
     9     8     9   ar
    10     9     1    1
    11     1     2    2
    12     1     3   am
    13     3    17    1
    14    17    18    1
    15    18    19    1
    16    19    20    1
    17    20    21    1
    18    21    22    1
    19    22    23    1
    20     3    24    1
    21    24    25    1
    22    25    26    1
    23    25    28    1
    24    28    40    1
    25    40    41    1
    26    41    42   ar
    27    42    43   ar
    28    43    44   ar
    29    44    45   ar
    30    45    46   ar
    31    28    29    1
    32    29    30   am
    33    30    31    2
    34    30    33    1
    35    33    34    1
    36    34    35    1
    37    35    36   ar
    38    36    37   ar
    39    37    38   ar
    40    38    39   ar
    41     9    10   ar
    42    10    11   ar
    43    11    12   ar
    44    12     4   ar
    45    11     6   ar
    46    23    18    1
    47    46    41   ar
    48    39    35   ar
    49    26    27    1
    50    29    32    1
