@<TRIPOS>MOLECULE
*****
 27 29 0 0 0
SMALL
GASTEIGER

@<TRIPOS>ATOM
      1 N          62.5355   84.6127   15.6886 N.am    1  UNL1       -0.3004
      2 C          63.3220   83.7546   14.7426 C.2     1  UNL1        0.2252
      3 O          64.8182   83.8545   14.7066 O.2     1  UNL1       -0.2750
      4 H          61.5534   84.5472   15.7122 H       1  UNL1        0.1497
      5 C          63.2453   85.5708   16.5987 C.3     1  UNL1        0.1163
      6 C          63.9498   89.8173   15.2871 C.ar    1  UNL1        0.0756
      7 C          64.4346   88.6799   14.4379 C.ar    1  UNL1        0.0062
      8 C          64.1998   87.2644   14.8751 C.ar    1  UNL1       -0.0024
      9 C          63.4801   86.9863   16.1615 C.ar    1  UNL1       -0.0026
     10 C          62.9953   88.1238   17.0107 C.ar    1  UNL1       -0.0024
     11 C          63.2302   89.5393   16.5734 C.ar    1  UNL1        0.0062
     12 C          64.1847   91.2329   14.8498 C.2     1  UNL1        0.3413
     13 O          64.7238   92.2388   15.8231 O.2     1  UNL1       -0.2449
     14 C          64.9980   91.9951   12.5030 C.3     1  UNL1        0.2560
     15 O          63.8803   91.6424   13.4392 O.3     1  UNL1       -0.4413
     16 C          62.6122   82.7964   13.8324 C.3     1  UNL1        0.1154
     17 C          63.1523   82.5264   12.4594 C.3     1  UNL1        0.1377
     18 C          63.5458   81.2030   13.0457 C.3     1  UNL1        0.0335
     19 C          62.6458   83.9063   12.1602 C.3     1  UNL1        0.0613
     20 C          62.9552   84.2125   10.7247 C.3     1  UNL1        0.1290
     21 C          63.3291   84.3757    9.2812 C.3     1  UNL1        0.0305
     22 C          62.9988   85.6489    8.5603 C.3     1  UNL1        0.0025
     23 C          62.2947   86.7589    9.2829 C.3     1  UNL1        0.0002
     24 C          61.9208   86.5957   10.7263 C.3     1  UNL1        0.0025
     25 C          62.2511   85.3225   11.4472 C.3     1  UNL1        0.0305
     26 O          63.6529   83.0218   10.1367 O.3     1  UNL1       -0.2256
     27 O          63.7747   81.9798   11.2089 O.3     1  UNL1       -0.2251
@<TRIPOS>BOND
     1    14    15    1
     2    15    12    1
     3    12    13    2
     4    12     6    1
     5     6     7   ar
     6     7     8   ar
     7     8     9   ar
     8     9     5    1
     9     5     1    1
    10     1     2   am
    11     2     3    2
    12     2    16    1
    13    16    17    1
    14    17    18    1
    15    17    19    1
    16    19    20    1
    17    20    21    1
    18    21    22    1
    19    22    23    1
    20    23    24    1
    21    24    25    1
    22    20    26    1
    23    26    27    1
    24     9    10   ar
    25    10    11   ar
    26    11     6   ar
    27    27    17    1
    28    25    20    1
    29     1     4    1
@<TRIPOS>MOLECULE
*****
 27 29 0 0 0
SMALL
GASTEIGER

@<TRIPOS>ATOM
      1 N          63.9886   88.6212   15.2453 N.am    1  UNL1       -0.3004
      2 C          64.0099   87.4148   14.3541 C.2     1  UNL1        0.2252
      3 O          63.4996   87.5127   12.9471 O.2     1  UNL1       -0.2750
      4 H          64.3236   88.5570   16.1689 H       1  UNL1        0.1497
      5 C          63.4571   89.9255   14.7293 C.3     1  UNL1        0.1163
      6 C          65.9605   92.4374   11.9593 C.ar    1  UNL1        0.0756
      7 C          64.6454   91.8882   11.4912 C.ar    1  UNL1        0.0062
      8 C          63.8110   91.0509   12.4146 C.ar    1  UNL1       -0.0024
      9 C          64.2915   90.7628   13.8060 C.ar    1  UNL1       -0.0026
     10 C          65.6066   91.3119   14.2740 C.ar    1  UNL1       -0.0024
     11 C          66.4410   92.1492   13.3506 C.ar    1  UNL1        0.0062
     12 C          66.7949   93.2747   11.0359 C.2     1  UNL1        0.3413
     13 O          66.3596   94.6671   10.6868 O.2     1  UNL1       -0.2449
     14 C          68.4019   92.9568    9.0193 C.3     1  UNL1        0.2560
     15 O          68.0645   92.7196   10.4616 O.3     1  UNL1       -0.4413
     16 C          64.5415   86.1104   14.8702 C.3     1  UNL1        0.1154
     17 C          63.6101   84.9555   15.0902 C.3     1  UNL1        0.1377
     18 C          63.3783   85.6002   16.4246 C.3     1  UNL1        0.0335
     19 C          64.0366   84.5522   13.7099 C.3     1  UNL1        0.0613
     20 C          63.3204   83.2826   13.3557 C.3     1  UNL1        0.1290
     21 C          62.5368   82.0213   13.1432 C.3     1  UNL1        0.0305
     22 C          62.6670   81.2658   11.8540 C.3     1  UNL1        0.0025
     23 C          63.5806   81.7716   10.7772 C.3     1  UNL1        0.0002
     24 C          64.3641   83.0329   10.9897 C.3     1  UNL1        0.0025
     25 C          64.2340   83.7884   12.2789 C.3     1  UNL1        0.0305
     26 O          62.4511   82.9013   14.5172 O.3     1  UNL1       -0.2256
     27 O          62.6302   83.9352   15.5893 O.3     1  UNL1       -0.2251
@<TRIPOS>BOND
     1    14    15    1
     2    15    12    1
     3    12    13    2
     4    12     6    1
     5     6     7   ar
     6     7     8   ar
     7     8     9   ar
     8     9     5    1
     9     5     1    1
    10     1     2   am
    11     2     3    2
    12     2    16    1
    13    16    17    1
    14    17    18    1
    15    17    19    1
    16    19    20    1
    17    20    21    1
    18    21    22    1
    19    22    23    1
    20    23    24    1
    21    24    25    1
    22    20    26    1
    23    26    27    1
    24     9    10   ar
    25    10    11   ar
    26    11     6   ar
    27    27    17    1
    28    25    20    1
    29     1     4    1
@<TRIPOS>MOLECULE
*****
 27 29 0 0 0
SMALL
GASTEIGER

@<TRIPOS>ATOM
      1 N          63.6284   88.1068   13.0858 N.am    1  UNL1       -0.3004
      2 C          63.9425   87.7120   14.4985 C.2     1  UNL1        0.2252
      3 O          63.6211   88.6460   15.6273 O.2     1  UNL1       -0.2750
      4 H          63.8393   87.4937   12.3449 H       1  UNL1        0.1497
      5 C          62.9930   89.4356   12.8020 C.3     1  UNL1        0.1163
      6 C          65.5600   92.9766   11.7431 C.ar    1  UNL1        0.0756
      7 C          64.6450   92.3795   10.7154 C.ar    1  UNL1        0.0062
      8 C          63.7894   91.1992   11.0684 C.ar    1  UNL1       -0.0024
      9 C          63.8487   90.6159   12.4491 C.ar    1  UNL1       -0.0026
     10 C          64.7637   91.2130   13.4768 C.ar    1  UNL1       -0.0024
     11 C          65.6194   92.3934   13.1237 C.ar    1  UNL1        0.0062
     12 C          66.4157   94.1570   11.3901 C.2     1  UNL1        0.3413
     13 O          66.1124   95.5047   11.9745 O.2     1  UNL1       -0.2449
     14 C          67.6700   94.8378    9.2191 C.3     1  UNL1        0.2560
     15 O          67.5746   93.9896   10.4526 O.3     1  UNL1       -0.4413
     16 C          64.5779   86.3831   14.7823 C.3     1  UNL1        0.1154
     17 C          63.7214   85.1998   15.1225 C.3     1  UNL1        0.1377
     18 C          63.5707   85.8881   16.4467 C.3     1  UNL1        0.0335
     19 C          64.0511   84.7588   13.7272 C.3     1  UNL1        0.0613
     20 C          63.3668   83.4467   13.4818 C.3     1  UNL1        0.1290
     21 C          62.6268   82.1457   13.3828 C.3     1  UNL1        0.0305
     22 C          62.6849   81.3443   12.1162 C.3     1  UNL1        0.0025
     23 C          63.4830   81.8439   10.9486 C.3     1  UNL1        0.0002
     24 C          64.2230   83.1449   11.0476 C.3     1  UNL1        0.0025
     25 C          64.1649   83.9463   12.3142 C.3     1  UNL1        0.0305
     26 O          62.6142   83.0767   14.7255 O.3     1  UNL1       -0.2256
     27 O          62.8333   84.1602   15.7395 O.3     1  UNL1       -0.2251
@<TRIPOS>BOND
     1    14    15    1
     2    15    12    1
     3    12    13    2
     4    12     6    1
     5     6     7   ar
     6     7     8   ar
     7     8     9   ar
     8     9     5    1
     9     5     1    1
    10     1     2   am
    11     2     3    2
    12     2    16    1
    13    16    17    1
    14    17    18    1
    15    17    19    1
    16    19    20    1
    17    20    21    1
    18    21    22    1
    19    22    23    1
    20    23    24    1
    21    24    25    1
    22    20    26    1
    23    26    27    1
    24     9    10   ar
    25    10    11   ar
    26    11     6   ar
    27    27    17    1
    28    25    20    1
    29     1     4    1
@<TRIPOS>MOLECULE
*****
 27 29 0 0 0
SMALL
GASTEIGER

@<TRIPOS>ATOM
      1 N          63.5207   87.3660   13.0527 N.am    1  UNL1       -0.3004
      2 C          64.2350   87.5482   14.3591 C.2     1  UNL1        0.2252
      3 O          64.5659   88.9274   14.8470 O.2     1  UNL1       -0.2750
      4 H          63.3035   86.4607   12.7325 H       1  UNL1        0.1497
      5 C          63.1373   88.5631   12.2343 C.3     1  UNL1        0.1163
      6 C          60.2691   88.1131    8.7962 C.ar    1  UNL1        0.0756
      7 C          60.9631   86.9072    9.3566 C.ar    1  UNL1        0.0062
      8 C          61.9192   87.0572   10.5026 C.ar    1  UNL1       -0.0024
      9 C          62.1812   88.4131   11.0882 C.ar    1  UNL1       -0.0026
     10 C          61.4872   89.6190   10.5278 C.ar    1  UNL1       -0.0024
     11 C          60.5311   89.4689    9.3817 C.ar    1  UNL1        0.0062
     12 C          59.3130   87.9631    7.6500 C.2     1  UNL1        0.3413
     13 O          58.9718   86.5974    7.1319 O.2     1  UNL1       -0.2449
     14 C          59.4234   89.9064    5.9293 C.3     1  UNL1        0.2560
     15 O          58.6982   89.1787    7.0222 O.3     1  UNL1       -0.4413
     16 C          64.6184   86.3510   15.1776 C.3     1  UNL1        0.1154
     17 C          63.5999   85.2924   15.4808 C.3     1  UNL1        0.1377
     18 C          63.3800   86.0853   16.7350 C.3     1  UNL1        0.0335
     19 C          64.0328   84.7209   14.1632 C.3     1  UNL1        0.0613
     20 C          63.2358   83.4747   13.9142 C.3     1  UNL1        0.1290
     21 C          62.3685   82.2559   13.8029 C.3     1  UNL1        0.0305
     22 C          62.4778   81.3649   12.6013 C.3     1  UNL1        0.0025
     23 C          63.4543   81.6926   11.5109 C.3     1  UNL1        0.0002
     24 C          64.3216   82.9114   11.6221 C.3     1  UNL1        0.0025
     25 C          64.2123   83.8024   12.8238 C.3     1  UNL1        0.0305
     26 O          62.3103   83.2761   15.0779 O.3     1  UNL1       -0.2256
     27 O          62.5354   84.3995   16.0461 O.3     1  UNL1       -0.2251
@<TRIPOS>BOND
     1    14    15    1
     2    15    12    1
     3    12    13    2
     4    12     6    1
     5     6     7   ar
     6     7     8   ar
     7     8     9   ar
     8     9     5    1
     9     5     1    1
    10     1     2   am
    11     2     3    2
    12     2    16    1
    13    16    17    1
    14    17    18    1
    15    17    19    1
    16    19    20    1
    17    20    21    1
    18    21    22    1
    19    22    23    1
    20    23    24    1
    21    24    25    1
    22    20    26    1
    23    26    27    1
    24     9    10   ar
    25    10    11   ar
    26    11     6   ar
    27    27    17    1
    28    25    20    1
    29     1     4    1
@<TRIPOS>MOLECULE
*****
 27 29 0 0 0
SMALL
GASTEIGER

@<TRIPOS>ATOM
      1 N          62.5180   89.3486   10.5998 N.am    1  UNL1       -0.3004
      2 C          61.0612   88.9914   10.6189 C.2     1  UNL1        0.2252
      3 O          60.0249   90.0726   10.7032 O.2     1  UNL1       -0.2750
      4 H          63.1981   88.6390   10.5445 H       1  UNL1        0.1497
      5 C          62.9383   90.7870   10.6651 C.3     1  UNL1        0.1163
      6 C          65.7656   92.1610   13.8851 C.ar    1  UNL1        0.0756
      7 C          64.7735   91.0733   14.1723 C.ar    1  UNL1        0.0062
      8 C          63.8310   90.6153   13.0989 C.ar    1  UNL1       -0.0024
      9 C          63.8808   91.2450   11.7384 C.ar    1  UNL1       -0.0026
     10 C          64.8729   92.3327   11.4512 C.ar    1  UNL1       -0.0024
     11 C          65.8154   92.7907   12.5247 C.ar    1  UNL1        0.0062
     12 C          66.7081   92.6189   14.9585 C.2     1  UNL1        0.3413
     13 O          66.2398   92.7050   16.3809 O.2     1  UNL1       -0.2449
     14 C          69.0721   93.4121   15.6881 C.3     1  UNL1        0.2560
     15 O          68.1187   92.9908   14.6094 O.3     1  UNL1       -0.4413
     16 C          60.6408   87.5530   10.5536 C.3     1  UNL1        0.1154
     17 C          61.3490   86.6058    9.6311 C.3     1  UNL1        0.1377
     18 C          60.6444   87.3761    8.5540 C.3     1  UNL1        0.0335
     19 C          61.9056   86.0335   10.9010 C.3     1  UNL1        0.0613
     20 C          62.8107   84.8936   10.5382 C.3     1  UNL1        0.1290
     21 C          63.6802   83.7841   10.0254 C.3     1  UNL1        0.0305
     22 C          64.4477   82.9270   10.9877 C.3     1  UNL1        0.0025
     23 C          64.3457   83.1792   12.4629 C.3     1  UNL1        0.0002
     24 C          63.4761   84.2886   12.9756 C.3     1  UNL1        0.0025
     25 C          62.7086   85.1458   12.0133 C.3     1  UNL1        0.0305
     26 O          62.8134   84.7614    9.0440 O.3     1  UNL1       -0.2256
     27 O          61.9100   85.8196    8.4833 O.3     1  UNL1       -0.2251
@<TRIPOS>BOND
     1    14    15    1
     2    15    12    1
     3    12    13    2
     4    12     6    1
     5     6     7   ar
     6     7     8   ar
     7     8     9   ar
     8     9     5    1
     9     5     1    1
    10     1     2   am
    11     2     3    2
    12     2    16    1
    13    16    17    1
    14    17    18    1
    15    17    19    1
    16    19    20    1
    17    20    21    1
    18    21    22    1
    19    22    23    1
    20    23    24    1
    21    24    25    1
    22    20    26    1
    23    26    27    1
    24     9    10   ar
    25    10    11   ar
    26    11     6   ar
    27    27    17    1
    28    25    20    1
    29     1     4    1
@<TRIPOS>MOLECULE
*****
 27 29 0 0 0
SMALL
GASTEIGER

@<TRIPOS>ATOM
      1 N          62.6803   88.6254   12.3104 N.am    1  UNL1       -0.3004
      2 C          61.2374   88.5962   11.9012 C.2     1  UNL1        0.2252
      3 O          60.3152   89.7005   12.3249 O.2     1  UNL1       -0.2750
      4 H          63.2857   87.9005   12.0322 H       1  UNL1        0.1497
      5 C          63.2008   89.7591   13.1433 C.3     1  UNL1        0.1163
      6 C          65.5729   93.0624   11.2168 C.ar    1  UNL1        0.0756
      7 C          64.5517   92.3081   10.4179 C.ar    1  UNL1        0.0062
      8 C          63.7610   91.2070   11.0601 C.ar    1  UNL1       -0.0024
      9 C          63.9915   90.8602   12.5011 C.ar    1  UNL1       -0.0026
     10 C          65.0126   91.6146   13.3000 C.ar    1  UNL1       -0.0024
     11 C          65.8033   92.7157   12.6577 C.ar    1  UNL1        0.0062
     12 C          66.3635   94.1635   10.5745 C.2     1  UNL1        0.3413
     13 O          66.4665   95.5018   11.2441 O.2     1  UNL1       -0.2449
     14 C          68.2574   93.0369    9.1984 C.3     1  UNL1        0.2560
     15 O          67.0512   93.9263    9.2628 O.3     1  UNL1       -0.4413
     16 C          60.7169   87.4624   11.0682 C.3     1  UNL1        0.1154
     17 C          61.5789   86.8605    9.9984 C.3     1  UNL1        0.1377
     18 C          61.1163   88.0332    9.1856 C.3     1  UNL1        0.0335
     19 C          61.8614   85.8136   11.0349 C.3     1  UNL1        0.0613
     20 C          62.8013   84.8097   10.4357 C.3     1  UNL1        0.1290
     21 C          63.7368   83.8924    9.7056 C.3     1  UNL1        0.0305
     22 C          64.2824   82.6757   10.3926 C.3     1  UNL1        0.0025
     23 C          63.8925   82.3764   11.8098 C.3     1  UNL1        0.0002
     24 C          62.9569   83.2938   12.5399 C.3     1  UNL1        0.0025
     25 C          62.4113   84.5104   11.8529 C.3     1  UNL1        0.0305
     26 O          63.0997   85.2362    9.0289 O.3     1  UNL1       -0.2256
     27 O          62.3442   86.5037    8.7586 O.3     1  UNL1       -0.2251
@<TRIPOS>BOND
     1    14    15    1
     2    15    12    1
     3    12    13    2
     4    12     6    1
     5     6     7   ar
     6     7     8   ar
     7     8     9   ar
     8     9     5    1
     9     5     1    1
    10     1     2   am
    11     2     3    2
    12     2    16    1
    13    16    17    1
    14    17    18    1
    15    17    19    1
    16    19    20    1
    17    20    21    1
    18    21    22    1
    19    22    23    1
    20    23    24    1
    21    24    25    1
    22    20    26    1
    23    26    27    1
    24     9    10   ar
    25    10    11   ar
    26    11     6   ar
    27    27    17    1
    28    25    20    1
    29     1     4    1
@<TRIPOS>MOLECULE
*****
 27 29 0 0 0
SMALL
GASTEIGER

@<TRIPOS>ATOM
      1 N          63.7345   87.4912   13.3157 N.am    1  UNL1       -0.3004
      2 C          63.8706   87.0081   14.7293 C.2     1  UNL1        0.2252
      3 O          63.4798   87.9023   15.8684 O.2     1  UNL1       -0.2750
      4 H          63.9909   86.9043   12.5680 H       1  UNL1        0.1497
      5 C          63.2076   88.8686   13.0414 C.3     1  UNL1        0.1163
      6 C          65.8958   92.4443   13.5288 C.ar    1  UNL1        0.0756
      7 C          65.0193   92.3245   12.3175 C.ar    1  UNL1        0.0062
      8 C          64.1232   91.1326   12.1550 C.ar    1  UNL1       -0.0024
      9 C          64.1037   90.0605   13.2039 C.ar    1  UNL1       -0.0026
     10 C          64.9802   90.1802   14.4152 C.ar    1  UNL1       -0.0024
     11 C          65.8763   91.3722   14.5776 C.ar    1  UNL1        0.0062
     12 C          66.7919   93.6362   13.6912 C.2     1  UNL1        0.3413
     13 O          66.3614   94.9748   13.1688 O.2     1  UNL1       -0.2449
     14 C          68.2165   93.6536   15.8638 C.3     1  UNL1        0.2560
     15 O          68.1183   93.4895   14.3760 O.3     1  UNL1       -0.4413
     16 C          64.3975   85.6307   15.0037 C.3     1  UNL1        0.1154
     17 C          63.4573   84.4627   15.0457 C.3     1  UNL1        0.1377
     18 C          63.1324   84.9749   16.4176 C.3     1  UNL1        0.0335
     19 C          63.9788   84.1947   13.6650 C.3     1  UNL1        0.0613
     20 C          63.2929   82.9681   13.1405 C.3     1  UNL1        0.1290
     21 C          62.5302   81.7360   12.7528 C.3     1  UNL1        0.0305
     22 C          62.7510   81.1095   11.4079 C.3     1  UNL1        0.0025
     23 C          63.7344   81.7151   10.4507 C.3     1  UNL1        0.0002
     24 C          64.4971   82.9471   10.8384 C.3     1  UNL1        0.0025
     25 C          64.2764   83.5736   12.1833 C.3     1  UNL1        0.0305
     26 O          62.3476   82.4780   14.1970 O.3     1  UNL1       -0.2256
     27 O          62.4491   83.4018   15.3745 O.3     1  UNL1       -0.2251
@<TRIPOS>BOND
     1    14    15    1
     2    15    12    1
     3    12    13    2
     4    12     6    1
     5     6     7   ar
     6     7     8   ar
     7     8     9   ar
     8     9     5    1
     9     5     1    1
    10     1     2   am
    11     2     3    2
    12     2    16    1
    13    16    17    1
    14    17    18    1
    15    17    19    1
    16    19    20    1
    17    20    21    1
    18    21    22    1
    19    22    23    1
    20    23    24    1
    21    24    25    1
    22    20    26    1
    23    26    27    1
    24     9    10   ar
    25    10    11   ar
    26    11     6   ar
    27    27    17    1
    28    25    20    1
    29     1     4    1
@<TRIPOS>MOLECULE
*****
 27 29 0 0 0
SMALL
GASTEIGER

@<TRIPOS>ATOM
      1 N          63.9455   88.3736   13.3850 N.am    1  UNL1       -0.3004
      2 C          63.1652   89.5745   13.8311 C.2     1  UNL1        0.2252
      3 O          62.5215   89.5899   15.1857 O.2     1  UNL1       -0.2750
      4 H          64.3681   88.3635   12.4958 H       1  UNL1        0.1497
      5 C          64.0819   87.1880   14.2937 C.3     1  UNL1        0.1163
      6 C          63.2097   83.0540   12.7449 C.ar    1  UNL1        0.0756
      7 C          62.6724   84.2541   12.0231 C.ar    1  UNL1        0.0062
      8 C          62.9632   85.6321   12.5394 C.ar    1  UNL1       -0.0024
      9 C          63.7912   85.8100   13.7774 C.ar    1  UNL1       -0.0026
     10 C          64.3285   84.6099   14.4992 C.ar    1  UNL1       -0.0024
     11 C          64.0377   83.2318   13.9828 C.ar    1  UNL1        0.0062
     12 C          62.9189   81.6759   12.2285 C.2     1  UNL1        0.3413
     13 O          63.1758   81.3451   10.7882 O.2     1  UNL1       -0.2449
     14 C          61.1331   80.9076   13.9520 C.3     1  UNL1        0.2560
     15 O          62.3714   80.6289   13.1525 O.3     1  UNL1       -0.4413
     16 C          63.0288   90.7602   12.9223 C.3     1  UNL1        0.1154
     17 C          64.2508   91.3890   12.3213 C.3     1  UNL1        0.1377
     18 C          63.5816   91.0694   11.0175 C.3     1  UNL1        0.0335
     19 C          64.6645   91.5771   13.7508 C.3     1  UNL1        0.0613
     20 C          66.0024   92.2554   13.7608 C.3     1  UNL1        0.1290
     21 C          67.3329   92.9323   13.6138 C.3     1  UNL1        0.0305
     22 C          68.1195   93.3127   14.8330 C.3     1  UNL1        0.0025
     23 C          67.5756   93.0163   16.1992 C.3     1  UNL1        0.0002
     24 C          66.2452   92.3394   16.3461 C.3     1  UNL1        0.0025
     25 C          65.4586   91.9590   15.1269 C.3     1  UNL1        0.0305
     26 O          66.4156   92.4864   12.3374 O.3     1  UNL1       -0.2256
     27 O          65.3330   91.9509   11.4477 O.3     1  UNL1       -0.2251
@<TRIPOS>BOND
     1    14    15    1
     2    15    12    1
     3    12    13    2
     4    12     6    1
     5     6     7   ar
     6     7     8   ar
     7     8     9   ar
     8     9     5    1
     9     5     1    1
    10     1     2   am
    11     2     3    2
    12     2    16    1
    13    16    17    1
    14    17    18    1
    15    17    19    1
    16    19    20    1
    17    20    21    1
    18    21    22    1
    19    22    23    1
    20    23    24    1
    21    24    25    1
    22    20    26    1
    23    26    27    1
    24     9    10   ar
    25    10    11   ar
    26    11     6   ar
    27    27    17    1
    28    25    20    1
    29     1     4    1
@<TRIPOS>MOLECULE
*****
 27 29 0 0 0
SMALL
GASTEIGER

@<TRIPOS>ATOM
      1 N          64.5036   88.4693   14.6301 N.am    1  UNL1       -0.3004
      2 C          63.6582   89.6182   15.0944 C.2     1  UNL1        0.2252
      3 O          62.5597   89.3871   16.0892 O.2     1  UNL1       -0.2750
      4 H          65.2246   88.6210   13.9771 H       1  UNL1        0.1497
      5 C          64.2504   87.0894   15.1607 C.3     1  UNL1        0.1163
      6 C          63.8155   83.6297   12.3162 C.ar    1  UNL1        0.0756
      7 C          64.6801   83.4948   13.5345 C.ar    1  UNL1        0.0062
      8 C          64.8251   84.6480   14.4827 C.ar    1  UNL1       -0.0024
      9 C          64.1055   85.9361   14.2125 C.ar    1  UNL1       -0.0026
     10 C          63.2409   86.0710   12.9942 C.ar    1  UNL1       -0.0024
     11 C          63.0959   84.9177   12.0460 C.ar    1  UNL1        0.0062
     12 C          63.6706   82.4764   11.3680 C.2     1  UNL1        0.3413
     13 O          64.5961   82.3495   10.1944 O.2     1  UNL1       -0.2449
     14 C          62.7189   80.4802   12.7317 C.3     1  UNL1        0.2560
     15 O          62.6002   81.4501   11.5935 O.3     1  UNL1       -0.4413
     16 C          63.9114   90.9982   14.5637 C.3     1  UNL1        0.1154
     17 C          64.1836   91.2016   13.1028 C.3     1  UNL1        0.1377
     18 C          65.4489   91.8440   13.5888 C.3     1  UNL1        0.0335
     19 C          62.8613   90.5168   12.9221 C.3     1  UNL1        0.0613
     20 C          62.5807   90.4312   11.4510 C.3     1  UNL1        0.1290
     21 C          62.4375   90.4184    9.9580 C.3     1  UNL1        0.0305
     22 C          61.2216   89.8080    9.3264 C.3     1  UNL1        0.0025
     23 C          60.1489   89.2104   10.1878 C.3     1  UNL1        0.0002
     24 C          60.2921   89.2231   11.6809 C.3     1  UNL1        0.0025
     25 C          61.5080   89.8335   12.3125 C.3     1  UNL1        0.0305
     26 O          63.7296   91.0632   10.7225 O.3     1  UNL1       -0.2256
     27 O          64.7202   91.5394   11.7433 O.3     1  UNL1       -0.2251
@<TRIPOS>BOND
     1    14    15    1
     2    15    12    1
     3    12    13    2
     4    12     6    1
     5     6     7   ar
     6     7     8   ar
     7     8     9   ar
     8     9     5    1
     9     5     1    1
    10     1     2   am
    11     2     3    2
    12     2    16    1
    13    16    17    1
    14    17    18    1
    15    17    19    1
    16    19    20    1
    17    20    21    1
    18    21    22    1
    19    22    23    1
    20    23    24    1
    21    24    25    1
    22    20    26    1
    23    26    27    1
    24     9    10   ar
    25    10    11   ar
    26    11     6   ar
    27    27    17    1
    28    25    20    1
    29     1     4    1
