@<TRIPOS>MOLECULE
*****
 30 33 0 0 0
SMALL
GASTEIGER

@<TRIPOS>ATOM
      1 C          63.5800   90.3382   15.8087 C.2     1  UNL1        0.2440
      2 O          62.8460   91.0736   16.8906 O.2     1  UNL1       -0.2731
      3 N          63.6650   88.8411   15.8442 N.am    1  UNL1       -0.2781
      4 C          63.0161   88.0793   16.9616 C.3     1  UNL1        0.0951
      5 C          63.1012   86.5821   16.9971 C.3     1  UNL1        0.0410
      6 C          63.8351   85.8467   15.9152 C.3     1  UNL1        0.0722
      7 C          64.4840   86.6085   14.7978 C.3     1  UNL1        0.0410
      8 C          64.3990   88.1057   14.7622 C.3     1  UNL1        0.0951
      9 N          63.5040   91.2879   13.3916 N.3     1  UNL1       -0.3116
     10 C          64.2289   91.1000   14.6912 C.3     1  UNL1        0.1514
     11 H          62.5910   90.8361   13.4431 H       1  UNL1        0.1195
     12 H          64.0474   90.8709   12.6358 H       1  UNL1        0.1195
     13 C          65.6027   91.6738   14.8735 C.ar    1  UNL1        0.0005
     14 C          65.9425   92.4227   16.1280 C.ar    1  UNL1       -0.0020
     15 C          67.3163   92.9966   16.3102 C.ar    1  UNL1        0.0064
     16 C          68.3505   92.8216   15.2379 C.ar    1  UNL1        0.0345
     17 BR         69.7243   93.3955   15.4201 Br      1  UNL1       -0.0490
     18 C          68.0109   92.0727   13.9834 C.ar    1  UNL1        0.0064
     19 C          66.6369   91.4989   13.8012 C.ar    1  UNL1       -0.0020
     20 N          63.9202   84.3495   15.9507 N.pl3   1  UNL1       -0.3369
     21 H          64.1921   83.8914   16.7786 H       1  UNL1        0.1465
     22 C          63.5908   83.5503   14.7247 C.2     1  UNL1        0.0262
     23 C          62.4558   82.5701   14.7510 C.2     1  UNL1        0.0118
     24 C          62.1265   81.7709   13.5250 C.2     1  UNL1        0.0216
     25 C          62.9322   81.9521   12.2728 C.2     1  UNL1        0.1008
     26 N          62.8430   81.3099   10.9202 N.2     1  UNL1       -0.1482
     27 N          63.9229   81.8933   10.0580 N.2     1  UNL1       -0.1467
     28 C          64.6795   82.8961   10.8778 C.2     1  UNL1        0.1198
     29 C          64.0672   82.9325   12.2466 C.2     1  UNL1        0.0238
     30 C          64.3965   83.7316   13.4726 C.3     1  UNL1        0.0703
@<TRIPOS>BOND
     1     9    10    1
     2    10     1    1
     3     1     2    2
     4     1     3   am
     5     3     4    1
     6     4     5    1
     7     5     6    1
     8     6    20    1
     9    20    22    1
    10    22    23    2
    11    23    24    1
    12    24    25    2
    13    25    26    1
    14    26    27    2
    15    27    28    1
    16    28    29    2
    17    29    30    1
    18     6     7    1
    19     7     8    1
    20    10    13    1
    21    13    14   ar
    22    14    15   ar
    23    15    16   ar
    24    16    17    1
    25    16    18   ar
    26    18    19   ar
    27     8     3    1
    28    19    13   ar
    29    30    22    1
    30    29    25    1
    31     9    11    1
    32     9    12    1
    33    20    21    1
@<TRIPOS>MOLECULE
*****
 30 33 0 0 0
SMALL
GASTEIGER

@<TRIPOS>ATOM
      1 C          62.0626   87.4378   11.6376 C.2     1  UNL1        0.2440
      2 O          62.2862   86.1953   12.4475 O.2     1  UNL1       -0.2731
      3 N          62.8447   88.6814   11.9405 N.am    1  UNL1       -0.2781
      4 C          63.8504   88.6824   13.0533 C.3     1  UNL1        0.0951
      5 C          64.6326   89.9260   13.3563 C.3     1  UNL1        0.0410
      6 C          64.4090   91.1686   12.5464 C.3     1  UNL1        0.0722
      7 C          63.4032   91.1676   11.4335 C.3     1  UNL1        0.0410
      8 C          62.6211   89.9240   11.1305 C.3     1  UNL1        0.0951
      9 N          59.8137   88.2687   10.6365 N.3     1  UNL1       -0.3116
     10 C          61.0568   87.4369   10.5247 C.3     1  UNL1        0.1514
     11 H          59.8163   88.7659   11.5271 H       1  UNL1        0.1195
     12 H          58.9941   87.6636   10.5874 H       1  UNL1        0.1195
     13 C          61.2943   86.6040    9.2999 C.ar    1  UNL1        0.0005
     14 C          62.6406   85.9869    9.0619 C.ar    1  UNL1       -0.0020
     15 C          62.8779   85.1541    7.8372 C.ar    1  UNL1        0.0064
     16 C          61.7690   84.9383    6.8504 C.ar    1  UNL1        0.0345
     17 BR         62.0064   84.1055    5.6257 Br      1  UNL1       -0.0490
     18 C          60.4227   85.5554    7.0883 C.ar    1  UNL1        0.0064
     19 C          60.1854   86.3883    8.3132 C.ar    1  UNL1       -0.0020
     20 N          65.1911   92.4122   12.8494 N.pl3   1  UNL1       -0.3369
     21 H          65.2184   92.7650   13.7681 H       1  UNL1        0.1465
     22 C          65.9317   93.1182   11.7525 C.2     1  UNL1        0.0262
     23 C          66.8461   92.3469   10.8477 C.2     1  UNL1        0.0118
     24 C          67.5867   93.0529    9.7508 C.2     1  UNL1        0.0216
     25 C          67.4127   94.5304    9.5588 C.2     1  UNL1        0.1008
     26 N          68.0065   95.4909    8.5715 N.2     1  UNL1       -0.1482
     27 N          67.4589   96.8560    8.8661 N.2     1  UNL1       -0.1467
     28 C          66.5268   96.7391   10.0355 C.2     1  UNL1        0.1198
     29 C          66.4983   95.3017   10.4636 C.2     1  UNL1        0.0238
     30 C          65.7577   94.5957   11.5605 C.3     1  UNL1        0.0703
@<TRIPOS>BOND
     1     9    10    1
     2    10     1    1
     3     1     2    2
     4     1     3   am
     5     3     4    1
     6     4     5    1
     7     5     6    1
     8     6    20    1
     9    20    22    1
    10    22    23    2
    11    23    24    1
    12    24    25    2
    13    25    26    1
    14    26    27    2
    15    27    28    1
    16    28    29    2
    17    29    30    1
    18     6     7    1
    19     7     8    1
    20    10    13    1
    21    13    14   ar
    22    14    15   ar
    23    15    16   ar
    24    16    17    1
    25    16    18   ar
    26    18    19   ar
    27     8     3    1
    28    19    13   ar
    29    30    22    1
    30    29    25    1
    31     9    11    1
    32     9    12    1
    33    20    21    1
@<TRIPOS>MOLECULE
*****
 30 33 0 0 0
SMALL
GASTEIGER

@<TRIPOS>ATOM
      1 C          65.8756   91.7602   13.3681 C.2     1  UNL1        0.2440
      2 O          65.9415   91.5729   14.8549 O.2     1  UNL1       -0.2731
      3 N          64.6308   91.3859   12.6195 N.am    1  UNL1       -0.2781
      4 C          63.4520   90.8244   13.3576 C.3     1  UNL1        0.0951
      5 C          62.2071   90.4502   12.6089 C.3     1  UNL1        0.0410
      6 C          62.1412   90.6375   11.1221 C.3     1  UNL1        0.0722
      7 C          63.3202   91.1991   10.3840 C.3     1  UNL1        0.0410
      8 C          64.5650   91.5733   11.1326 C.3     1  UNL1        0.0951
      9 N          68.4299   91.7847   12.8939 N.3     1  UNL1       -0.3116
     10 C          67.0545   92.3217   12.6299 C.3     1  UNL1        0.1514
     11 H          68.3781   91.0484   13.5980 H       1  UNL1        0.1195
     12 H          69.0296   92.5372   13.2324 H       1  UNL1        0.1195
     13 C          66.8580   93.4203   11.6277 C.ar    1  UNL1        0.0005
     14 C          66.1990   94.7031   12.0404 C.ar    1  UNL1       -0.0020
     15 C          66.0025   95.8016   11.0382 C.ar    1  UNL1        0.0064
     16 C          66.4649   95.6175    9.6231 C.ar    1  UNL1        0.0345
     17 BR         66.2683   96.7161    8.6209 Br      1  UNL1       -0.0490
     18 C          67.1238   94.3347    9.2103 C.ar    1  UNL1        0.0064
     19 C          67.3203   93.2362   10.2127 C.ar    1  UNL1       -0.0020
     20 N          60.8964   90.2633   10.3735 N.pl3   1  UNL1       -0.3369
     21 H          60.0960   90.8333   10.4332 H       1  UNL1        0.1465
     22 C          60.8713   89.0204    9.5340 C.2     1  UNL1        0.0262
     23 C          59.7365   88.7806    8.5830 C.2     1  UNL1        0.0118
     24 C          59.7113   87.5377    7.7434 C.2     1  UNL1        0.0216
     25 C          60.8210   86.5347    7.8551 C.2     1  UNL1        0.1008
     26 N          61.0659   85.2274    7.1616 N.2     1  UNL1       -0.1482
     27 N          62.3520   84.6593    7.6841 N.2     1  UNL1       -0.1467
     28 C          62.9021   85.6154    8.7006 C.2     1  UNL1        0.1198
     29 C          61.9559   86.7745    8.8063 C.2     1  UNL1        0.0238
     30 C          61.9810   88.0174    9.6457 C.3     1  UNL1        0.0703
@<TRIPOS>BOND
     1     9    10    1
     2    10     1    1
     3     1     2    2
     4     1     3   am
     5     3     4    1
     6     4     5    1
     7     5     6    1
     8     6    20    1
     9    20    22    1
    10    22    23    2
    11    23    24    1
    12    24    25    2
    13    25    26    1
    14    26    27    2
    15    27    28    1
    16    28    29    2
    17    29    30    1
    18     6     7    1
    19     7     8    1
    20    10    13    1
    21    13    14   ar
    22    14    15   ar
    23    15    16   ar
    24    16    17    1
    25    16    18   ar
    26    18    19   ar
    27     8     3    1
    28    19    13   ar
    29    30    22    1
    30    29    25    1
    31     9    11    1
    32     9    12    1
    33    20    21    1
@<TRIPOS>MOLECULE
*****
 30 33 0 0 0
SMALL
GASTEIGER

@<TRIPOS>ATOM
      1 C          64.2830   91.1000   13.8982 C.2     1  UNL1        0.2440
      2 O          65.5555   91.8290   13.5828 O.2     1  UNL1       -0.2731
      3 N          63.2950   90.8096   12.8076 N.am    1  UNL1       -0.2781
      4 C          63.5793   91.2481   11.4017 C.3     1  UNL1        0.0951
      5 C          62.5912   90.9576   10.3111 C.3     1  UNL1        0.0410
      6 C          61.3187   90.2286   10.6265 C.3     1  UNL1        0.0722
      7 C          61.0344   89.7902   12.0326 C.3     1  UNL1        0.0410
      8 C          62.0225   90.0806   13.1232 C.3     1  UNL1        0.0951
      9 N          63.8690   91.6816   16.3963 N.3     1  UNL1       -0.3116
     10 C          63.9986   90.6615   15.3042 C.3     1  UNL1        0.1514
     11 H          64.0022   92.6150   16.0072 H       1  UNL1        0.1195
     12 H          64.5761   91.5068   17.1104 H       1  UNL1        0.1195
     13 C          63.8438   89.2029   15.6181 C.ar    1  UNL1        0.0005
     14 C          63.0807   88.7747   16.8365 C.ar    1  UNL1       -0.0020
     15 C          62.9260   87.3162   17.1504 C.ar    1  UNL1        0.0064
     16 C          63.5343   86.2857   16.2459 C.ar    1  UNL1        0.0345
     17 BR         63.3795   84.8271   16.5598 Br      1  UNL1       -0.0490
     18 C          64.2974   86.7138   15.0275 C.ar    1  UNL1        0.0064
     19 C          64.4521   88.1724   14.7137 C.ar    1  UNL1       -0.0020
     20 N          60.3307   89.9382    9.5360 N.pl3   1  UNL1       -0.3369
     21 H          59.6506   90.6086    9.2965 H       1  UNL1        0.1465
     22 C          60.3788   88.6263    8.8102 C.2     1  UNL1        0.0262
     23 C          59.2318   88.2088    7.9386 C.2     1  UNL1        0.0118
     24 C          59.2800   86.8969    7.2128 C.2     1  UNL1        0.0216
     25 C          60.4753   86.0026    7.3588 C.2     1  UNL1        0.1008
     26 N          60.8036   84.6621    6.7711 N.2     1  UNL1       -0.1482
     27 N          62.1537   84.2512    7.2796 N.2     1  UNL1       -0.1467
     28 C          62.6597   85.3377    8.1815 C.2     1  UNL1        0.1198
     29 C          61.6224   86.4201    8.2305 C.2     1  UNL1        0.0238
     30 C          61.5742   87.7320    8.9562 C.3     1  UNL1        0.0703
@<TRIPOS>BOND
     1     9    10    1
     2    10     1    1
     3     1     2    2
     4     1     3   am
     5     3     4    1
     6     4     5    1
     7     5     6    1
     8     6    20    1
     9    20    22    1
    10    22    23    2
    11    23    24    1
    12    24    25    2
    13    25    26    1
    14    26    27    2
    15    27    28    1
    16    28    29    2
    17    29    30    1
    18     6     7    1
    19     7     8    1
    20    10    13    1
    21    13    14   ar
    22    14    15   ar
    23    15    16   ar
    24    16    17    1
    25    16    18   ar
    26    18    19   ar
    27     8     3    1
    28    19    13   ar
    29    30    22    1
    30    29    25    1
    31     9    11    1
    32     9    12    1
    33    20    21    1
@<TRIPOS>MOLECULE
*****
 30 33 0 0 0
SMALL
GASTEIGER

@<TRIPOS>ATOM
      1 C          66.4982   91.7998   13.9118 C.2     1  UNL1        0.2440
      2 O          66.8740   91.8555   15.3629 O.2     1  UNL1       -0.2731
      3 N          65.1651   91.2469   13.5030 N.am    1  UNL1       -0.2781
      4 C          64.2079   90.7496   14.5453 C.3     1  UNL1        0.0951
      5 C          62.8747   90.1967   14.1365 C.3     1  UNL1        0.0410
      6 C          62.4989   90.1409   12.6854 C.3     1  UNL1        0.0722
      7 C          63.4562   90.6382   11.6431 C.3     1  UNL1        0.0410
      8 C          64.7893   91.1912   12.0519 C.3     1  UNL1        0.0951
      9 N          68.8361   91.7173   12.7816 N.3     1  UNL1       -0.3116
     10 C          67.4555   92.2971   12.8695 C.3     1  UNL1        0.1514
     11 H          68.9514   91.0032   13.5007 H       1  UNL1        0.1195
     12 H          69.5248   92.4564   12.9227 H       1  UNL1        0.1195
     13 C          67.0321   93.3740   11.9151 C.ar    1  UNL1        0.0005
     14 C          67.2691   93.2076   10.4433 C.ar    1  UNL1       -0.0020
     15 C          66.8457   94.2846    9.4890 C.ar    1  UNL1        0.0064
     16 C          66.1853   95.5281   10.0064 C.ar    1  UNL1        0.0345
     17 BR         65.7619   96.6050    9.0520 Br      1  UNL1       -0.0490
     18 C          65.9482   95.6945   11.4781 C.ar    1  UNL1        0.0064
     19 C          66.3716   94.6174   12.4325 C.ar    1  UNL1       -0.0020
     20 N          61.1658   89.5880   12.2766 N.pl3   1  UNL1       -0.3369
     21 H          60.3460   89.8975   12.7253 H       1  UNL1        0.1465
     22 C          61.0819   88.5634   11.1842 C.2     1  UNL1        0.0262
     23 C          62.0840   87.4490   11.1226 C.2     1  UNL1        0.0118
     24 C          62.0001   86.4245   10.0301 C.2     1  UNL1        0.0216
     25 C          60.9140   86.5144    8.9994 C.2     1  UNL1        0.1008
     26 N          60.5813   85.6568    7.8146 N.2     1  UNL1       -0.1482
     27 N          59.3735   86.2413    7.1440 N.2     1  UNL1       -0.1467
     28 C          58.9598   87.4600    7.9144 C.2     1  UNL1        0.1198
     29 C          59.9119   87.6288    9.0611 C.2     1  UNL1        0.0238
     30 C          59.9959   88.6534   10.1535 C.3     1  UNL1        0.0703
@<TRIPOS>BOND
     1     9    10    1
     2    10     1    1
     3     1     2    2
     4     1     3   am
     5     3     4    1
     6     4     5    1
     7     5     6    1
     8     6    20    1
     9    20    22    1
    10    22    23    2
    11    23    24    1
    12    24    25    2
    13    25    26    1
    14    26    27    2
    15    27    28    1
    16    28    29    2
    17    29    30    1
    18     6     7    1
    19     7     8    1
    20    10    13    1
    21    13    14   ar
    22    14    15   ar
    23    15    16   ar
    24    16    17    1
    25    16    18   ar
    26    18    19   ar
    27     8     3    1
    28    19    13   ar
    29    30    22    1
    30    29    25    1
    31     9    11    1
    32     9    12    1
    33    20    21    1
@<TRIPOS>MOLECULE
*****
 30 33 0 0 0
SMALL
GASTEIGER

@<TRIPOS>ATOM
      1 C          61.4394   86.6771    9.9136 C.2     1  UNL1        0.2440
      2 O          60.0824   86.7057    9.2752 O.2     1  UNL1       -0.2731
      3 N          61.8181   87.7253   10.9175 N.am    1  UNL1       -0.2781
      4 C          60.8399   88.8020   11.2829 C.3     1  UNL1        0.0951
      5 C          61.2187   89.8503   12.2868 C.3     1  UNL1        0.0410
      6 C          62.5757   89.8217   12.9253 C.3     1  UNL1        0.0722
      7 C          63.5540   88.7449   12.5598 C.3     1  UNL1        0.0410
      8 C          63.1752   87.6967   11.5560 C.3     1  UNL1        0.0951
      9 N          63.0506   85.5920    8.1883 N.3     1  UNL1       -0.3116
     10 C          62.4177   85.6003    9.5482 C.3     1  UNL1        0.1514
     11 H          62.7041   86.3842    7.6472 H       1  UNL1        0.1195
     12 H          62.8144   84.7233    7.7087 H       1  UNL1        0.1195
     13 C          62.7630   84.5318   10.5427 C.ar    1  UNL1        0.0005
     14 C          63.5800   83.3476   10.1181 C.ar    1  UNL1       -0.0020
     15 C          63.9253   82.2792   11.1126 C.ar    1  UNL1        0.0064
     16 C          63.4538   82.3949   12.5319 C.ar    1  UNL1        0.0345
     17 BR         63.7992   81.3264   13.5264 Br      1  UNL1       -0.0490
     18 C          62.6369   83.5791   12.9566 C.ar    1  UNL1        0.0064
     19 C          62.2915   84.6475   11.9620 C.ar    1  UNL1       -0.0020
     20 N          62.9545   90.8700   13.9292 N.pl3   1  UNL1       -0.3369
     21 H          62.2874   91.1967   14.5753 H       1  UNL1        0.1465
     22 C          64.3498   91.4204   13.9486 C.2     1  UNL1        0.0262
     23 C          64.9942   91.8757   12.6730 C.2     1  UNL1        0.0118
     24 C          66.3895   92.4261   12.6924 C.2     1  UNL1        0.0216
     25 C          67.1402   92.5212   13.9875 C.2     1  UNL1        0.1008
     26 N          68.5177   93.0164   14.3151 N.2     1  UNL1       -0.1482
     27 N          68.7245   92.8671   15.7933 N.2     1  UNL1       -0.1467
     28 C          67.4749   92.2797   16.3792 C.2     1  UNL1        0.1198
     29 C          66.4957   92.0659   15.2632 C.2     1  UNL1        0.0238
     30 C          65.1005   91.5155   15.2437 C.3     1  UNL1        0.0703
@<TRIPOS>BOND
     1     9    10    1
     2    10     1    1
     3     1     2    2
     4     1     3   am
     5     3     4    1
     6     4     5    1
     7     5     6    1
     8     6    20    1
     9    20    22    1
    10    22    23    2
    11    23    24    1
    12    24    25    2
    13    25    26    1
    14    26    27    2
    15    27    28    1
    16    28    29    2
    17    29    30    1
    18     6     7    1
    19     7     8    1
    20    10    13    1
    21    13    14   ar
    22    14    15   ar
    23    15    16   ar
    24    16    17    1
    25    16    18   ar
    26    18    19   ar
    27     8     3    1
    28    19    13   ar
    29    30    22    1
    30    29    25    1
    31     9    11    1
    32     9    12    1
    33    20    21    1
@<TRIPOS>MOLECULE
*****
 30 33 0 0 0
SMALL
GASTEIGER

@<TRIPOS>ATOM
      1 C          60.7992   86.5824    8.4075 C.2     1  UNL1        0.2440
      2 O          59.4570   86.5132    7.7413 O.2     1  UNL1       -0.2731
      3 N          61.1513   87.7623    9.2641 N.am    1  UNL1       -0.2781
      4 C          60.1613   88.8730    9.4545 C.3     1  UNL1        0.0951
      5 C          60.5135   90.0530   10.3111 C.3     1  UNL1        0.0410
      6 C          61.8557   90.1222   10.9773 C.3     1  UNL1        0.0722
      7 C          62.8456   89.0114   10.7868 C.3     1  UNL1        0.0410
      8 C          62.4935   87.8315    9.9303 C.3     1  UNL1        0.0951
      9 N          62.1283   84.9980    6.8349 N.3     1  UNL1       -0.3116
     10 C          61.7892   85.4717    8.2171 C.3     1  UNL1        0.1514
     11 H          61.5977   85.5375    6.1508 H       1  UNL1        0.1195
     12 H          61.8912   84.0099    6.7464 H       1  UNL1        0.1195
     13 C          62.4401   84.8347    9.4089 C.ar    1  UNL1        0.0005
     14 C          61.8875   85.0742   10.7828 C.ar    1  UNL1       -0.0020
     15 C          62.5385   84.4372   11.9745 C.ar    1  UNL1        0.0064
     16 C          63.7421   83.5607   11.7926 C.ar    1  UNL1        0.0345
     17 BR         64.3931   82.9238   12.9845 Br      1  UNL1       -0.0490
     18 C          64.2948   83.3212   10.4189 C.ar    1  UNL1        0.0064
     19 C          63.6437   83.9583    9.2270 C.ar    1  UNL1       -0.0020
     20 N          62.2078   91.3021   11.8339 N.pl3   1  UNL1       -0.3369
     21 H          61.6096   92.0834   11.8655 H       1  UNL1        0.1465
     22 C          63.4714   91.2916   12.6422 C.2     1  UNL1        0.0262
     23 C          63.5106   90.5827   13.9635 C.2     1  UNL1        0.0118
     24 C          64.7741   90.5722   14.7718 C.2     1  UNL1        0.0216
     25 C          65.9985   91.2706   14.2588 C.2     1  UNL1        0.1008
     26 N          67.3766   91.4292   14.8292 N.2     1  UNL1       -0.1482
     27 N          68.1892   92.2362   13.8604 N.2     1  UNL1       -0.1467
     28 C          67.3132   92.5763   12.6912 C.2     1  UNL1        0.1198
     29 C          65.9592   91.9795   12.9374 C.2     1  UNL1        0.0238
     30 C          64.6957   91.9900   12.1292 C.3     1  UNL1        0.0703
@<TRIPOS>BOND
     1     9    10    1
     2    10     1    1
     3     1     2    2
     4     1     3   am
     5     3     4    1
     6     4     5    1
     7     5     6    1
     8     6    20    1
     9    20    22    1
    10    22    23    2
    11    23    24    1
    12    24    25    2
    13    25    26    1
    14    26    27    2
    15    27    28    1
    16    28    29    2
    17    29    30    1
    18     6     7    1
    19     7     8    1
    20    10    13    1
    21    13    14   ar
    22    14    15   ar
    23    15    16   ar
    24    16    17    1
    25    16    18   ar
    26    18    19   ar
    27     8     3    1
    28    19    13   ar
    29    30    22    1
    30    29    25    1
    31     9    11    1
    32     9    12    1
    33    20    21    1
@<TRIPOS>MOLECULE
*****
 30 33 0 0 0
SMALL
GASTEIGER

@<TRIPOS>ATOM
      1 C          60.6427   89.1980    9.5799 C.2     1  UNL1        0.2440
      2 O          59.8551   89.6071    8.3706 O.2     1  UNL1       -0.2731
      3 N          61.3453   87.8729    9.6042 N.am    1  UNL1       -0.2781
      4 C          61.2604   86.9571    8.4194 C.3     1  UNL1        0.0951
      5 C          61.9631   85.6320    8.4438 C.3     1  UNL1        0.0410
      6 C          62.7506   85.2229    9.6531 C.3     1  UNL1        0.0722
      7 C          62.8355   86.1388   10.8380 C.3     1  UNL1        0.0410
      8 C          62.1328   87.4638   10.8136 C.3     1  UNL1        0.0951
      9 N          59.4860   90.4713   11.5269 N.3     1  UNL1       -0.3116
     10 C          60.7276   90.1138   10.7648 C.3     1  UNL1        0.1514
     11 H          58.6822   90.0067   11.1045 H       1  UNL1        0.1195
     12 H          59.3486   91.4816   11.4982 H       1  UNL1        0.1195
     13 C          62.0540   90.6722   11.1876 C.ar    1  UNL1        0.0005
     14 C          62.4926   90.5621   12.6179 C.ar    1  UNL1       -0.0020
     15 C          63.8190   91.1205   13.0406 C.ar    1  UNL1        0.0064
     16 C          64.7069   91.7889   12.0332 C.ar    1  UNL1        0.0345
     17 BR         66.0334   92.3472   12.4561 Br      1  UNL1       -0.0490
     18 C          64.2684   91.8989   10.6030 C.ar    1  UNL1        0.0064
     19 C          62.9419   91.3405   10.1802 C.ar    1  UNL1       -0.0020
     20 N          63.4533   83.8978    9.6774 N.pl3   1  UNL1       -0.3369
     21 H          63.8476   83.5345    8.8518 H       1  UNL1        0.1465
     22 C          63.5551   83.1264   10.9599 C.2     1  UNL1        0.0262
     23 C          64.4019   83.6471   12.0831 C.2     1  UNL1        0.0118
     24 C          64.5037   82.8757   13.3656 C.2     1  UNL1        0.0216
     25 C          63.7586   81.5836   13.5247 C.2     1  UNL1        0.1008
     26 N          63.6671   80.6114   14.6633 N.2     1  UNL1       -0.1482
     27 N          62.7637   79.4900   14.2438 N.2     1  UNL1       -0.1467
     28 C          62.2968   79.7690   12.8459 C.2     1  UNL1        0.1198
     29 C          62.9118   81.0629   12.4014 C.2     1  UNL1        0.0238
     30 C          62.8100   81.8344   11.1190 C.3     1  UNL1        0.0703
@<TRIPOS>BOND
     1     9    10    1
     2    10     1    1
     3     1     2    2
     4     1     3   am
     5     3     4    1
     6     4     5    1
     7     5     6    1
     8     6    20    1
     9    20    22    1
    10    22    23    2
    11    23    24    1
    12    24    25    2
    13    25    26    1
    14    26    27    2
    15    27    28    1
    16    28    29    2
    17    29    30    1
    18     6     7    1
    19     7     8    1
    20    10    13    1
    21    13    14   ar
    22    14    15   ar
    23    15    16   ar
    24    16    17    1
    25    16    18   ar
    26    18    19   ar
    27     8     3    1
    28    19    13   ar
    29    30    22    1
    30    29    25    1
    31     9    11    1
    32     9    12    1
    33    20    21    1
@<TRIPOS>MOLECULE
*****
 30 33 0 0 0
SMALL
GASTEIGER

@<TRIPOS>ATOM
      1 C          66.0967   91.8281   14.1877 C.2     1  UNL1        0.2440
      2 O          66.9136   91.3134   15.3356 O.2     1  UNL1       -0.2731
      3 N          65.0571   90.9516   13.5545 N.am    1  UNL1       -0.2781
      4 C          64.8344   89.5604   14.0691 C.3     1  UNL1        0.0951
      5 C          63.7948   88.6839   13.4358 C.3     1  UNL1        0.0410
      6 C          62.9779   89.1986   12.2879 C.3     1  UNL1        0.0722
      7 C          63.2007   90.5898   11.7732 C.3     1  UNL1        0.0410
      8 C          64.2402   91.4664   12.4065 C.3     1  UNL1        0.0951
      9 N          66.1722   94.3929   14.5955 N.3     1  UNL1       -0.3116
     10 C          66.3194   93.2193   13.6730 C.3     1  UNL1        0.1514
     11 H          65.9195   94.0634   15.5272 H       1  UNL1        0.1195
     12 H          65.4417   95.0121   14.2441 H       1  UNL1        0.1195
     13 C          66.6892   93.4370   12.2357 C.ar    1  UNL1        0.0005
     14 C          67.4442   92.3790   11.4869 C.ar    1  UNL1       -0.0020
     15 C          67.8140   92.5967   10.0496 C.ar    1  UNL1        0.0064
     16 C          67.4290   93.8725    9.3611 C.ar    1  UNL1        0.0345
     17 BR         67.7989   94.0902    7.9238 Br      1  UNL1       -0.0490
     18 C          66.6740   94.9306   10.1098 C.ar    1  UNL1        0.0064
     19 C          66.3042   94.7128   11.5471 C.ar    1  UNL1       -0.0020
     20 N          61.9384   88.3220   11.6547 N.pl3   1  UNL1       -0.3369
     21 H          61.0066   88.6328   11.5881 H       1  UNL1        0.1465
     22 C          62.3186   86.9719   11.1228 C.2     1  UNL1        0.0262
     23 C          62.4128   86.7483    9.6427 C.2     1  UNL1        0.0118
     24 C          62.7930   85.3982    9.1108 C.2     1  UNL1        0.0216
     25 C          63.0790   84.2718   10.0593 C.2     1  UNL1        0.1008
     26 N          63.4739   82.8429    9.8306 N.2     1  UNL1       -0.1482
     27 N          63.6237   82.1836   11.1696 N.2     1  UNL1       -0.1467
     28 C          63.3214   83.2049   12.2257 C.2     1  UNL1        0.1198
     29 C          62.9847   84.4956   11.5395 C.2     1  UNL1        0.0238
     30 C          62.6045   85.8456   12.0713 C.3     1  UNL1        0.0703
@<TRIPOS>BOND
     1     9    10    1
     2    10     1    1
     3     1     2    2
     4     1     3   am
     5     3     4    1
     6     4     5    1
     7     5     6    1
     8     6    20    1
     9    20    22    1
    10    22    23    2
    11    23    24    1
    12    24    25    2
    13    25    26    1
    14    26    27    2
    15    27    28    1
    16    28    29    2
    17    29    30    1
    18     6     7    1
    19     7     8    1
    20    10    13    1
    21    13    14   ar
    22    14    15   ar
    23    15    16   ar
    24    16    17    1
    25    16    18   ar
    26    18    19   ar
    27     8     3    1
    28    19    13   ar
    29    30    22    1
    30    29    25    1
    31     9    11    1
    32     9    12    1
    33    20    21    1
