@<TRIPOS>MOLECULE
*****
 35 39 0 0 0
SMALL
GASTEIGER

@<TRIPOS>ATOM
      1 C          60.1184   89.3578    7.9793 C.3     1  UNL1        0.2159
      2 N          60.8464   88.7288    9.1302 N.am    1  UNL1       -0.1449
      3 C          61.6551   89.5816   10.0622 C.2     1  UNL1        0.3728
      4 N          61.7359   91.0634    9.8433 N.2     1  UNL1       -0.1329
      5 N          62.3831   88.9526   11.2131 N.pl3   1  UNL1       -0.2247
      6 C          62.3022   87.4709   11.4320 C.3     1  UNL1        0.1559
      7 C          62.9075   86.5754   12.4721 C.3     1  UNL1        0.1315
      8 N          62.4727   85.1693   12.1829 N.pl3   1  UNL1       -0.2887
      9 C          61.5988   85.1956   10.9640 C.3     1  UNL1        0.1065
     10 C          61.4934   86.6181   10.4999 C.3     1  UNL1        0.1497
     11 C          60.7655   87.2471    9.3491 C.2     1  UNL1        0.2919
     12 O          59.9568   86.3943    8.4170 O.2     1  UNL1       -0.2563
     13 H          61.2582   91.4762    9.0880 H       1  UNL1        0.3058
     14 H          62.9139   89.5123   11.8249 H       1  UNL1        0.2454
     15 C          62.8463   83.9506   12.9737 C.ar    1  UNL1        0.1414
     16 N          62.4080   83.8201   14.4022 N.ar    1  UNL1       -0.2285
     17 C          62.7816   82.6014   15.1930 C.ar    1  UNL1        0.1004
     18 C          63.5936   81.5133   14.5552 C.ar    1  UNL1        0.0215
     19 C          64.0319   81.6438   13.1267 C.ar    1  UNL1        0.0147
     20 C          63.6583   82.8625   12.3359 C.ar    1  UNL1        0.1000
     21 C          64.0967   82.9931   10.9074 C.1     1  UNL1        0.1032
     22 N          64.5351   83.1237    9.4788 N.1     1  UNL1       -0.1907
     23 C          63.1456   88.1916   12.4415 C.ar    1  UNL1        0.0397
     24 C          63.6900   89.5825   12.3037 C.ar    1  UNL1        0.0057
     25 C          64.4735   89.8985   13.5432 C.ar    1  UNL1        0.0068
     26 C          64.4133   88.7029   14.4471 C.ar    1  UNL1        0.0352
     27 S          63.5926   87.6480   13.7661 S.2     1  UNL1       -0.0878
     28 C          65.1912   91.1843   13.8287 C.ar    1  UNL1        0.0012
     29 C          65.6321   91.5028   15.2266 C.ar    1  UNL1        0.0001
     30 C          66.3498   92.7886   15.5122 C.ar    1  UNL1        0.0007
     31 C          66.6267   93.7560   14.3997 C.ar    1  UNL1        0.0103
     32 C          66.1858   93.4375   13.0019 C.ar    1  UNL1        0.0684
     33 C          65.4681   92.1517   12.7163 C.ar    1  UNL1        0.0103
     34 C          66.4627   94.4049   11.8893 C.1     1  UNL1        0.1004
     35 N          66.7396   95.3723   10.7769 N.1     1  UNL1       -0.1908
@<TRIPOS>BOND
     1     1     2    1
     2     2     3    1
     3     3     4    2
     4     3     5    1
     5     5     6    1
     6     6    23    1
     7    23    24   ar
     8    24    25   ar
     9    25    28    1
    10    28    29   ar
    11    29    30   ar
    12    30    31   ar
    13    31    32   ar
    14    32    34    1
    15    34    35    3
    16    32    33   ar
    17    25    26   ar
    18    26    27   ar
    19     6     7    1
    20     7     8    1
    21     8    15    1
    22    15    16   ar
    23    16    17   ar
    24    17    18   ar
    25    18    19   ar
    26    19    20   ar
    27    20    21    1
    28    21    22    3
    29     8     9    1
    30    10     9    1
    31    10    11    1
    32    11    12    2
    33    11     2   am
    34    10     6    1
    35    27    23   ar
    36    20    15   ar
    37    33    28   ar
    38     4    13    1
    39     5    14    1
@<TRIPOS>MOLECULE
*****
 35 39 0 0 0
SMALL
GASTEIGER

@<TRIPOS>ATOM
      1 C          66.4381   93.9100   13.1924 C.3     1  UNL1        0.2159
      2 N          65.6395   92.6588   12.9756 N.am    1  UNL1       -0.1449
      3 C          65.6719   91.5617   13.9979 C.2     1  UNL1        0.3728
      4 N          66.5029   91.7157   15.2373 N.2     1  UNL1       -0.1329
      5 N          64.8734   90.3105   13.7811 N.pl3   1  UNL1       -0.2247
      6 C          64.0425   90.1565   12.5418 C.3     1  UNL1        0.1559
      7 C          63.1579   89.0459   12.0581 C.3     1  UNL1        0.1315
      8 N          62.5787   89.4567   10.7368 N.pl3   1  UNL1       -0.2887
      9 C          63.1054   90.8211   10.4038 C.3     1  UNL1        0.1065
     10 C          64.0101   91.2536   11.5194 C.3     1  UNL1        0.1497
     11 C          64.8086   92.5048   11.7363 C.2     1  UNL1        0.2919
     12 O          64.7763   93.6019   10.7139 O.2     1  UNL1       -0.2563
     13 H          67.0270   92.5369   15.3797 H       1  UNL1        0.3058
     14 H          64.8947   89.5904   14.4521 H       1  UNL1        0.2454
     15 C          61.6380   88.6454    9.8961 C.ar    1  UNL1        0.1414
     16 N          62.1503   87.4679    9.1209 N.ar    1  UNL1       -0.2285
     17 C          61.2095   86.6567    8.2801 C.ar    1  UNL1        0.1004
     18 C          59.7564   87.0229    8.2145 C.ar    1  UNL1        0.0215
     19 C          59.2440   88.2005    8.9897 C.ar    1  UNL1        0.0147
     20 C          60.1849   89.0117    9.8305 C.ar    1  UNL1        0.1000
     21 C          59.6725   90.1892   10.6057 C.1     1  UNL1        0.1032
     22 N          59.1601   91.3667   11.3809 N.1     1  UNL1       -0.1907
     23 C          63.9764   88.9806   13.4707 C.ar    1  UNL1        0.0397
     24 C          63.8879   87.5396   13.0640 C.ar    1  UNL1        0.0057
     25 C          63.8440   86.7077   14.3114 C.ar    1  UNL1        0.0068
     26 C          63.9054   87.6346   15.4891 C.ar    1  UNL1        0.0352
     27 S          63.9873   89.0394   14.9695 S.2     1  UNL1       -0.0878
     28 C          63.7545   85.2116   14.3707 C.ar    1  UNL1        0.0012
     29 C          63.8211   84.5081   15.6938 C.ar    1  UNL1        0.0001
     30 C          63.7316   83.0119   15.7532 C.ar    1  UNL1        0.0007
     31 C          63.5754   82.2192   14.4894 C.ar    1  UNL1        0.0103
     32 C          63.5088   82.9227   13.1663 C.ar    1  UNL1        0.0684
     33 C          63.5983   84.4189   13.1069 C.ar    1  UNL1        0.0103
     34 C          63.3526   82.1301   11.9024 C.1     1  UNL1        0.1004
     35 N          63.1963   81.3374   10.6386 N.1     1  UNL1       -0.1908
@<TRIPOS>BOND
     1     1     2    1
     2     2     3    1
     3     3     4    2
     4     3     5    1
     5     5     6    1
     6     6    23    1
     7    23    24   ar
     8    24    25   ar
     9    25    28    1
    10    28    29   ar
    11    29    30   ar
    12    30    31   ar
    13    31    32   ar
    14    32    34    1
    15    34    35    3
    16    32    33   ar
    17    25    26   ar
    18    26    27   ar
    19     6     7    1
    20     7     8    1
    21     8    15    1
    22    15    16   ar
    23    16    17   ar
    24    17    18   ar
    25    18    19   ar
    26    19    20   ar
    27    20    21    1
    28    21    22    3
    29     8     9    1
    30    10     9    1
    31    10    11    1
    32    11    12    2
    33    11     2   am
    34    10     6    1
    35    27    23   ar
    36    20    15   ar
    37    33    28   ar
    38     4    13    1
    39     5    14    1
@<TRIPOS>MOLECULE
*****
 35 39 0 0 0
SMALL
GASTEIGER

@<TRIPOS>ATOM
      1 C          59.7407   89.2369    8.2051 C.3     1  UNL1        0.2159
      2 N          60.5906   88.5861    9.2559 N.am    1  UNL1       -0.1449
      3 C          61.3676   89.4309   10.2214 C.2     1  UNL1        0.3728
      4 N          61.2948   90.9268   10.1362 N.2     1  UNL1       -0.1329
      5 N          62.2175   88.7801   11.2723 N.pl3   1  UNL1       -0.2247
      6 C          62.2903   87.2843   11.3575 C.3     1  UNL1        0.1559
      7 C          63.0370   86.3667   12.2796 C.3     1  UNL1        0.1315
      8 N          62.7214   84.9547   11.8840 N.pl3   1  UNL1       -0.2887
      9 C          61.7797   84.9996   10.7173 C.3     1  UNL1        0.1065
     10 C          61.5132   86.4394   10.3919 C.3     1  UNL1        0.1497
     11 C          60.6633   87.0903    9.3412 C.2     1  UNL1        0.2919
     12 O          59.8863   86.2454    8.3756 O.2     1  UNL1       -0.2563
     13 H          60.7370   91.3540    9.4465 H       1  UNL1        0.3058
     14 H          62.7275   89.3347   11.9060 H       1  UNL1        0.2454
     15 C          63.2541   83.7153   12.5399 C.ar    1  UNL1        0.1414
     16 N          64.1164   82.7663   11.7615 N.ar    1  UNL1       -0.2285
     17 C          64.6490   81.5269   12.4175 C.ar    1  UNL1        0.1004
     18 C          64.3194   81.2364   13.8517 C.ar    1  UNL1        0.0215
     19 C          63.4571   82.1854   14.6300 C.ar    1  UNL1        0.0147
     20 C          62.9244   83.4248   13.9741 C.ar    1  UNL1        0.1000
     21 C          62.0621   84.3738   14.7524 C.1     1  UNL1        0.1032
     22 N          61.1998   85.3229   15.5308 N.1     1  UNL1       -0.1907
     23 C          63.1187   87.9951   12.3863 C.ar    1  UNL1        0.0397
     24 C          63.6283   89.4025   12.2891 C.ar    1  UNL1        0.0057
     25 C          64.4076   89.7005   13.5357 C.ar    1  UNL1        0.0068
     26 C          64.3797   88.4772   14.4033 C.ar    1  UNL1        0.0352
     27 S          63.5831   87.4232   13.6929 S.2     1  UNL1       -0.0878
     28 C          65.0942   90.9945   13.8580 C.ar    1  UNL1        0.0012
     29 C          65.4455   91.3236   15.2787 C.ar    1  UNL1        0.0001
     30 C          66.1321   92.6177   15.6010 C.ar    1  UNL1        0.0007
     31 C          66.4676   93.5827   14.5027 C.ar    1  UNL1        0.0103
     32 C          66.1163   93.2535   13.0821 C.ar    1  UNL1        0.0684
     33 C          65.4297   91.9595   12.7597 C.ar    1  UNL1        0.0103
     34 C          66.4517   94.2185   11.9837 C.1     1  UNL1        0.1004
     35 N          66.7871   95.1834   10.8853 N.1     1  UNL1       -0.1908
@<TRIPOS>BOND
     1     1     2    1
     2     2     3    1
     3     3     4    2
     4     3     5    1
     5     5     6    1
     6     6    23    1
     7    23    24   ar
     8    24    25   ar
     9    25    28    1
    10    28    29   ar
    11    29    30   ar
    12    30    31   ar
    13    31    32   ar
    14    32    34    1
    15    34    35    3
    16    32    33   ar
    17    25    26   ar
    18    26    27   ar
    19     6     7    1
    20     7     8    1
    21     8    15    1
    22    15    16   ar
    23    16    17   ar
    24    17    18   ar
    25    18    19   ar
    26    19    20   ar
    27    20    21    1
    28    21    22    3
    29     8     9    1
    30    10     9    1
    31    10    11    1
    32    11    12    2
    33    11     2   am
    34    10     6    1
    35    27    23   ar
    36    20    15   ar
    37    33    28   ar
    38     4    13    1
    39     5    14    1
@<TRIPOS>MOLECULE
*****
 35 39 0 0 0
SMALL
GASTEIGER

@<TRIPOS>ATOM
      1 C          66.6640   95.1379   11.7800 C.3     1  UNL1        0.2159
      2 N          65.8601   93.8852   11.9662 N.am    1  UNL1       -0.1449
      3 C          65.7513   93.2589   13.3248 C.2     1  UNL1        0.3728
      4 N          66.4463   93.8852   14.4973 N.2     1  UNL1       -0.1329
      5 N          64.9474   92.0062   13.5110 N.pl3   1  UNL1       -0.2247
      6 C          64.2524   91.3799   12.3385 C.3     1  UNL1        0.1559
      7 C          63.3958   90.1546   12.2168 C.3     1  UNL1        0.1315
      8 N          62.9752   90.0237   10.7830 N.pl3   1  UNL1       -0.2887
      9 C          63.5719   91.1680   10.0185 C.3     1  UNL1        0.1065
     10 C          64.3612   92.0062   10.9799 C.3     1  UNL1        0.1497
     11 C          65.1651   93.2589   10.7938 C.2     1  UNL1        0.2919
     12 O          65.2739   93.8852    9.4351 O.2     1  UNL1       -0.2563
     13 H          66.9739   94.7074   14.3751 H       1  UNL1        0.3058
     14 H          64.8760   91.5951   14.4027 H       1  UNL1        0.2454
     15 C          62.1098   88.9388   10.2135 C.ar    1  UNL1        0.1414
     16 N          62.7377   87.7150    9.6151 N.ar    1  UNL1       -0.2285
     17 C          61.8722   86.6302    9.0456 C.ar    1  UNL1        0.1004
     18 C          60.3790   86.7692    9.0746 C.ar    1  UNL1        0.0215
     19 C          59.7511   87.9930    9.6730 C.ar    1  UNL1        0.0147
     20 C          60.6166   89.0778   10.2425 C.ar    1  UNL1        0.1000
     21 C          59.9887   90.3015   10.8409 C.1     1  UNL1        0.1032
     22 N          59.3608   91.5254   11.4392 N.1     1  UNL1       -0.1907
     23 C          64.0538   90.6436   13.6302 C.ar    1  UNL1        0.0397
     24 C          63.8453   89.1657   13.7796 C.ar    1  UNL1        0.0057
     25 C          63.6914   88.8647   15.2410 C.ar    1  UNL1        0.0068
     26 C          63.8047   90.1565   15.9948 C.ar    1  UNL1        0.0352
     27 S          64.0287   91.2560   14.9992 S.2     1  UNL1       -0.0878
     28 C          63.4641   87.5097   15.8430 C.ar    1  UNL1        0.0012
     29 C          62.9333   87.3894   17.2407 C.ar    1  UNL1        0.0001
     30 C          62.7060   86.0344   17.8427 C.ar    1  UNL1        0.0007
     31 C          63.0094   84.7997   17.0468 C.ar    1  UNL1        0.0103
     32 C          63.5402   84.9200   15.6491 C.ar    1  UNL1        0.0684
     33 C          63.7675   86.2750   15.0471 C.ar    1  UNL1        0.0103
     34 C          63.8436   83.6853   14.8531 C.1     1  UNL1        0.1004
     35 N          64.1470   82.4506   14.0572 N.1     1  UNL1       -0.1908
@<TRIPOS>BOND
     1     1     2    1
     2     2     3    1
     3     3     4    2
     4     3     5    1
     5     5     6    1
     6     6    23    1
     7    23    24   ar
     8    24    25   ar
     9    25    28    1
    10    28    29   ar
    11    29    30   ar
    12    30    31   ar
    13    31    32   ar
    14    32    34    1
    15    34    35    3
    16    32    33   ar
    17    25    26   ar
    18    26    27   ar
    19     6     7    1
    20     7     8    1
    21     8    15    1
    22    15    16   ar
    23    16    17   ar
    24    17    18   ar
    25    18    19   ar
    26    19    20   ar
    27    20    21    1
    28    21    22    3
    29     8     9    1
    30    10     9    1
    31    10    11    1
    32    11    12    2
    33    11     2   am
    34    10     6    1
    35    27    23   ar
    36    20    15   ar
    37    33    28   ar
    38     4    13    1
    39     5    14    1
@<TRIPOS>MOLECULE
*****
 35 39 0 0 0
SMALL
GASTEIGER

@<TRIPOS>ATOM
      1 C          59.2118   87.9613    6.7093 C.3     1  UNL1        0.2159
      2 N          60.0124   87.8622    7.9739 N.am    1  UNL1       -0.1449
      3 C          60.4811   89.1085    8.6645 C.2     1  UNL1        0.3728
      4 N          60.1492   90.4540    8.0905 N.2     1  UNL1       -0.1329
      5 N          61.2818   89.0094    9.9291 N.pl3   1  UNL1       -0.2247
      6 C          61.6137   87.6639   10.5031 C.3     1  UNL1        0.1559
      7 C          62.3804   87.2558   11.7260 C.3     1  UNL1        0.1315
      8 N          62.3856   85.7573   11.7912 N.pl3   1  UNL1       -0.2887
      9 C          61.6221   85.2392   10.6086 C.3     1  UNL1        0.1065
     10 C          61.1450   86.4175    9.8125 C.3     1  UNL1        0.1497
     11 C          60.3444   86.5167    8.5479 C.2     1  UNL1        0.2919
     12 O          59.8757   85.2703    7.8573 O.2     1  UNL1       -0.2563
     13 H          59.6237   90.5191    7.2605 H       1  UNL1        0.3058
     14 H          61.5894   89.8274   10.3824 H       1  UNL1        0.2454
     15 C          63.0395   84.9232   12.8527 C.ar    1  UNL1        0.1414
     16 N          62.8170   85.2433   14.3012 N.ar    1  UNL1       -0.2285
     17 C          63.4709   84.4092   15.3626 C.ar    1  UNL1        0.1004
     18 C          64.3473   83.2550   14.9756 C.ar    1  UNL1        0.0215
     19 C          64.5698   82.9348   13.5272 C.ar    1  UNL1        0.0147
     20 C          63.9159   83.7690   12.4658 C.ar    1  UNL1        0.1000
     21 C          64.1383   83.4489   11.0173 C.1     1  UNL1        0.1032
     22 N          64.3608   83.1288    9.5688 N.1     1  UNL1       -0.1907
     23 C          62.1482   88.8163   11.3008 C.ar    1  UNL1        0.0397
     24 C          63.2892   89.7070   10.9075 C.ar    1  UNL1        0.0057
     25 C          63.4816   90.7215   11.9956 C.ar    1  UNL1        0.0068
     26 C          62.4596   90.4577   13.0613 C.ar    1  UNL1        0.0352
     27 S          61.6354   89.2802   12.6319 S.2     1  UNL1       -0.0878
     28 C          64.5147   91.8088   12.0145 C.ar    1  UNL1        0.0012
     29 C          64.7522   92.6393   10.7882 C.ar    1  UNL1        0.0001
     30 C          65.7853   93.7266   10.8072 C.ar    1  UNL1        0.0007
     31 C          66.5810   93.9835   12.0526 C.ar    1  UNL1        0.0103
     32 C          66.3435   93.1530   13.2789 C.ar    1  UNL1        0.0684
     33 C          65.3104   92.0657   13.2599 C.ar    1  UNL1        0.0103
     34 C          67.1392   93.4099   14.5243 C.1     1  UNL1        0.1004
     35 N          67.9349   93.6667   15.7696 N.1     1  UNL1       -0.1908
@<TRIPOS>BOND
     1     1     2    1
     2     2     3    1
     3     3     4    2
     4     3     5    1
     5     5     6    1
     6     6    23    1
     7    23    24   ar
     8    24    25   ar
     9    25    28    1
    10    28    29   ar
    11    29    30   ar
    12    30    31   ar
    13    31    32   ar
    14    32    34    1
    15    34    35    3
    16    32    33   ar
    17    25    26   ar
    18    26    27   ar
    19     6     7    1
    20     7     8    1
    21     8    15    1
    22    15    16   ar
    23    16    17   ar
    24    17    18   ar
    25    18    19   ar
    26    19    20   ar
    27    20    21    1
    28    21    22    3
    29     8     9    1
    30    10     9    1
    31    10    11    1
    32    11    12    2
    33    11     2   am
    34    10     6    1
    35    27    23   ar
    36    20    15   ar
    37    33    28   ar
    38     4    13    1
    39     5    14    1
@<TRIPOS>MOLECULE
*****
 35 39 0 0 0
SMALL
GASTEIGER

@<TRIPOS>ATOM
      1 C          58.5731   88.3435    6.7618 C.3     1  UNL1        0.2159
      2 N          59.5819   88.0389    7.8294 N.am    1  UNL1       -0.1449
      3 C          60.1211   86.6471    7.9766 C.2     1  UNL1        0.3728
      4 N          59.6517   85.5595    7.0563 N.2     1  UNL1       -0.1329
      5 N          61.1299   86.3426    9.0443 N.pl3   1  UNL1       -0.2247
      6 C          61.5993   87.4301    9.9646 C.3     1  UNL1        0.1559
      7 C          62.5777   87.4299   11.1016 C.3     1  UNL1        0.1315
      8 N          62.6430   88.8217   11.6571 N.pl3   1  UNL1       -0.2887
      9 C          61.7051   89.6821   10.8633 C.3     1  UNL1        0.1065
     10 C          61.0600   88.8220    9.8173 C.3     1  UNL1        0.1497
     11 C          60.0513   89.1264    8.7497 C.2     1  UNL1        0.2919
     12 O          59.5120   90.5184    8.6024 O.2     1  UNL1       -0.2563
     13 H          58.9896   85.7593    6.3556 H       1  UNL1        0.3058
     14 H          61.4839   85.4290    9.1409 H       1  UNL1        0.2454
     15 C          63.4964   89.2738   12.8048 C.ar    1  UNL1        0.1414
     16 N          63.6034   88.4277   14.0388 N.ar    1  UNL1       -0.2285
     17 C          64.4568   88.8799   15.1865 C.ar    1  UNL1        0.1004
     18 C          65.2033   90.1781   15.1002 C.ar    1  UNL1        0.0215
     19 C          65.0963   91.0242   13.8663 C.ar    1  UNL1        0.0147
     20 C          64.2429   90.5720   12.7186 C.ar    1  UNL1        0.1000
     21 C          64.1359   91.4181   11.4846 C.1     1  UNL1        0.1032
     22 N          64.0289   92.2642   10.2506 N.1     1  UNL1       -0.1907
     23 C          62.2249   86.0930   10.2310 C.ar    1  UNL1        0.0397
     24 C          61.9482   85.2096   11.4112 C.ar    1  UNL1        0.0057
     25 C          62.7892   83.9752   11.2735 C.ar    1  UNL1        0.0068
     26 C          63.5857   84.0957   10.0082 C.ar    1  UNL1        0.0352
     27 S          63.2369   85.4046    9.3639 S.2     1  UNL1       -0.0878
     28 C          62.8271   82.8226   12.2328 C.ar    1  UNL1        0.0012
     29 C          64.1446   82.2809   12.7026 C.ar    1  UNL1        0.0001
     30 C          64.1825   81.1283   13.6619 C.ar    1  UNL1        0.0007
     31 C          62.9029   80.5174   14.1513 C.ar    1  UNL1        0.0103
     32 C          61.5855   81.0592   13.6814 C.ar    1  UNL1        0.0684
     33 C          61.5476   82.2118   12.7222 C.ar    1  UNL1        0.0103
     34 C          60.3058   80.4484   14.1708 C.1     1  UNL1        0.1004
     35 N          59.0262   79.8375   14.6601 N.1     1  UNL1       -0.1908
@<TRIPOS>BOND
     1     1     2    1
     2     2     3    1
     3     3     4    2
     4     3     5    1
     5     5     6    1
     6     6    23    1
     7    23    24   ar
     8    24    25   ar
     9    25    28    1
    10    28    29   ar
    11    29    30   ar
    12    30    31   ar
    13    31    32   ar
    14    32    34    1
    15    34    35    3
    16    32    33   ar
    17    25    26   ar
    18    26    27   ar
    19     6     7    1
    20     7     8    1
    21     8    15    1
    22    15    16   ar
    23    16    17   ar
    24    17    18   ar
    25    18    19   ar
    26    19    20   ar
    27    20    21    1
    28    21    22    3
    29     8     9    1
    30    10     9    1
    31    10    11    1
    32    11    12    2
    33    11     2   am
    34    10     6    1
    35    27    23   ar
    36    20    15   ar
    37    33    28   ar
    38     4    13    1
    39     5    14    1
@<TRIPOS>MOLECULE
*****
 35 39 0 0 0
SMALL
GASTEIGER

@<TRIPOS>ATOM
      1 C          64.2935   82.8931   15.1183 C.3     1  UNL1        0.2159
      2 N          63.8487   84.0376   14.2567 N.am    1  UNL1       -0.1449
      3 C          64.2865   85.4351   14.5813 C.2     1  UNL1        0.3728
      4 N          65.1690   85.6881   15.7676 N.2     1  UNL1       -0.1329
      5 N          63.8417   86.5796   13.7197 N.pl3   1  UNL1       -0.2247
      6 C          62.9592   86.3266   12.5335 C.3     1  UNL1        0.1559
      7 C          62.3658   87.2479   11.5094 C.3     1  UNL1        0.1315
      8 N          61.5612   86.4198   10.5518 N.pl3   1  UNL1       -0.2887
      9 C          61.6575   84.9867   10.9841 C.3     1  UNL1        0.1065
     10 C          62.5215   84.9291   12.2089 C.3     1  UNL1        0.1497
     11 C          62.9663   83.7846   13.0705 C.2     1  UNL1        0.2919
     12 O          62.5285   82.3871   12.7458 O.2     1  UNL1       -0.2563
     13 H          65.4609   84.9369   16.3332 H       1  UNL1        0.3058
     14 H          64.1290   87.4968   13.9328 H       1  UNL1        0.2454
     15 C          60.7949   86.9345    9.3694 C.ar    1  UNL1        0.1414
     16 N          60.9126   86.2461    8.0420 N.ar    1  UNL1       -0.2285
     17 C          60.1463   86.7608    6.8596 C.ar    1  UNL1        0.1004
     18 C          59.2623   87.9639    7.0048 C.ar    1  UNL1        0.0215
     19 C          59.1446   88.6524    8.3322 C.ar    1  UNL1        0.0147
     20 C          59.9109   88.1376    9.5145 C.ar    1  UNL1        0.1000
     21 C          59.7932   88.8261   10.8420 C.1     1  UNL1        0.1032
     22 N          59.6755   89.5146   12.1695 N.1     1  UNL1       -0.1907
     23 C          63.3145   87.7702   12.7328 C.ar    1  UNL1        0.0397
     24 C          64.0911   88.3362   13.8845 C.ar    1  UNL1        0.0057
     25 C          64.2121   89.8171   13.6788 C.ar    1  UNL1        0.0068
     26 C          63.5103   90.1664   12.4000 C.ar    1  UNL1        0.0352
     27 S          62.9555   88.9013   11.8153 S.2     1  UNL1       -0.0878
     28 C          64.9120   90.7798   14.5917 C.ar    1  UNL1        0.0012
     29 C          64.1975   91.3326   15.7891 C.ar    1  UNL1        0.0001
     30 C          64.8974   92.2952   16.7019 C.ar    1  UNL1        0.0007
     31 C          66.3120   92.7051   16.4175 C.ar    1  UNL1        0.0103
     32 C          67.0266   92.1523   15.2202 C.ar    1  UNL1        0.0684
     33 C          66.3267   91.1896   14.3073 C.ar    1  UNL1        0.0103
     34 C          68.4412   92.5621   14.9356 C.1     1  UNL1        0.1004
     35 N          69.8559   92.9718   14.6512 N.1     1  UNL1       -0.1908
@<TRIPOS>BOND
     1     1     2    1
     2     2     3    1
     3     3     4    2
     4     3     5    1
     5     5     6    1
     6     6    23    1
     7    23    24   ar
     8    24    25   ar
     9    25    28    1
    10    28    29   ar
    11    29    30   ar
    12    30    31   ar
    13    31    32   ar
    14    32    34    1
    15    34    35    3
    16    32    33   ar
    17    25    26   ar
    18    26    27   ar
    19     6     7    1
    20     7     8    1
    21     8    15    1
    22    15    16   ar
    23    16    17   ar
    24    17    18   ar
    25    18    19   ar
    26    19    20   ar
    27    20    21    1
    28    21    22    3
    29     8     9    1
    30    10     9    1
    31    10    11    1
    32    11    12    2
    33    11     2   am
    34    10     6    1
    35    27    23   ar
    36    20    15   ar
    37    33    28   ar
    38     4    13    1
    39     5    14    1
@<TRIPOS>MOLECULE
*****
 35 39 0 0 0
SMALL
GASTEIGER

@<TRIPOS>ATOM
      1 C          59.8411   88.2678    8.0802 C.3     1  UNL1        0.2159
      2 N          60.7621   88.3237    9.2630 N.am    1  UNL1       -0.1449
      3 C          61.1242   87.0638    9.9917 C.2     1  UNL1        0.3728
      4 N          60.5654   85.7477    9.5378 N.2     1  UNL1       -0.1329
      5 N          62.0452   87.1197   11.1745 N.pl3   1  UNL1       -0.2247
      6 C          62.6039   88.4356   11.6283 C.3     1  UNL1        0.1559
      7 C          63.5283   88.7995   12.7522 C.3     1  UNL1        0.1315
      8 N          63.7374   90.2845   12.7179 N.pl3   1  UNL1       -0.2887
      9 C          62.9423   90.8383   11.5729 C.3     1  UNL1        0.1065
     10 C          62.2417   89.6957   10.8995 C.3     1  UNL1        0.1497
     11 C          61.3208   89.6397    9.7168 C.2     1  UNL1        0.2919
     12 O          60.9587   90.8997    8.9880 O.2     1  UNL1       -0.2563
     13 H          59.9610   85.7110    8.7616 H       1  UNL1        0.3058
     14 H          62.2828   86.2927   11.6528 H       1  UNL1        0.2454
     15 C          64.5917   91.0766   13.6628 C.ar    1  UNL1        0.1414
     16 N          65.6936   91.9438   13.1302 N.ar    1  UNL1       -0.2285
     17 C          66.5479   92.7359   14.0751 C.ar    1  UNL1        0.1004
     18 C          66.3003   92.6608   15.5526 C.ar    1  UNL1        0.0215
     19 C          65.1984   91.7935   16.0852 C.ar    1  UNL1        0.0147
     20 C          64.3441   91.0015   15.1403 C.ar    1  UNL1        0.1000
     21 C          63.2422   90.1342   15.6729 C.1     1  UNL1        0.1032
     22 N          62.1403   89.2670   16.2056 N.1     1  UNL1       -0.1907
     23 C          63.0533   87.2653   12.4519 C.ar    1  UNL1        0.0397
     24 C          62.6805   85.8306   12.2225 C.ar    1  UNL1        0.0057
     25 C          63.3513   85.0028   13.2783 C.ar    1  UNL1        0.0068
     26 C          64.1387   85.9259   14.1603 C.ar    1  UNL1        0.0352
     27 S          63.9546   87.3242   13.6495 S.2     1  UNL1       -0.0878
     28 C          63.2521   83.5135   13.4263 C.ar    1  UNL1        0.0012
     29 C          64.4760   82.6608   13.2683 C.ar    1  UNL1        0.0001
     30 C          64.3768   81.1715   13.4163 C.ar    1  UNL1        0.0007
     31 C          63.0535   80.5346   13.7221 C.ar    1  UNL1        0.0103
     32 C          61.8296   81.3872   13.8800 C.ar    1  UNL1        0.0684
     33 C          61.9288   82.8766   13.7321 C.ar    1  UNL1        0.0103
     34 C          60.5063   80.7505   14.1859 C.1     1  UNL1        0.1004
     35 N          59.1830   80.1138   14.4916 N.1     1  UNL1       -0.1908
@<TRIPOS>BOND
     1     1     2    1
     2     2     3    1
     3     3     4    2
     4     3     5    1
     5     5     6    1
     6     6    23    1
     7    23    24   ar
     8    24    25   ar
     9    25    28    1
    10    28    29   ar
    11    29    30   ar
    12    30    31   ar
    13    31    32   ar
    14    32    34    1
    15    34    35    3
    16    32    33   ar
    17    25    26   ar
    18    26    27   ar
    19     6     7    1
    20     7     8    1
    21     8    15    1
    22    15    16   ar
    23    16    17   ar
    24    17    18   ar
    25    18    19   ar
    26    19    20   ar
    27    20    21    1
    28    21    22    3
    29     8     9    1
    30    10     9    1
    31    10    11    1
    32    11    12    2
    33    11     2   am
    34    10     6    1
    35    27    23   ar
    36    20    15   ar
    37    33    28   ar
    38     4    13    1
    39     5    14    1
@<TRIPOS>MOLECULE
*****
 35 39 0 0 0
SMALL
GASTEIGER

@<TRIPOS>ATOM
      1 C          59.6880   88.2393    7.5762 C.3     1  UNL1        0.2159
      2 N          60.5220   88.2356    8.8230 N.am    1  UNL1       -0.1449
      3 C          60.9294   86.9349    9.4490 C.2     1  UNL1        0.3728
      4 N          60.5027   85.6376    8.8282 N.2     1  UNL1       -0.1329
      5 N          61.7634   86.9312   10.6958 N.pl3   1  UNL1       -0.2247
      6 C          62.1900   88.2284   11.3165 C.3     1  UNL1        0.1559
      7 C          63.0081   88.5367   12.5354 C.3     1  UNL1        0.1315
      8 N          63.1063   90.0280   12.6627 N.pl3   1  UNL1       -0.2887
      9 C          62.3489   90.6415   11.5224 C.3     1  UNL1        0.1065
     10 C          61.7826   89.5292   10.6905 C.3     1  UNL1        0.1497
     11 C          60.9486   89.5328    9.4437 C.2     1  UNL1        0.2919
     12 O          60.5412   90.8336    8.8176 O.2     1  UNL1       -0.2563
     13 H          59.9554   85.6400    8.0099 H       1  UNL1        0.3058
     14 H          62.0308   86.0774   11.1067 H       1  UNL1        0.2454
     15 C          63.8341   90.7749   13.7409 C.ar    1  UNL1        0.1414
     16 N          63.4831   90.5443   15.1809 N.ar    1  UNL1       -0.2285
     17 C          64.2110   91.2913   16.2590 C.ar    1  UNL1        0.1004
     18 C          65.2898   92.2687   15.8972 C.ar    1  UNL1        0.0215
     19 C          65.6407   92.4992   14.4572 C.ar    1  UNL1        0.0147
     20 C          64.9128   91.7523   13.3790 C.ar    1  UNL1        0.1000
     21 C          65.2638   91.9829   11.9390 C.1     1  UNL1        0.1032
     22 N          65.6148   92.2134   10.4989 N.1     1  UNL1       -0.1907
     23 C          62.6712   87.0128   12.0518 C.ar    1  UNL1        0.0397
     24 C          62.1956   85.6065   11.8368 C.ar    1  UNL1        0.0057
     25 C          62.9430   84.7146   12.7834 C.ar    1  UNL1        0.0068
     26 C          63.8805   85.5696   13.5833 C.ar    1  UNL1        0.0352
     27 S          63.7125   86.9900   13.1312 S.2     1  UNL1       -0.0878
     28 C          62.7812   83.2286   12.9081 C.ar    1  UNL1        0.0012
     29 C          62.4719   82.6171   14.2423 C.ar    1  UNL1        0.0001
     30 C          62.3102   81.1311   14.3670 C.ar    1  UNL1        0.0007
     31 C          62.4577   80.2565   13.1574 C.ar    1  UNL1        0.0103
     32 C          62.7670   80.8680   11.8231 C.ar    1  UNL1        0.0684
     33 C          62.9288   82.3540   11.6984 C.ar    1  UNL1        0.0103
     34 C          62.9146   79.9934   10.6133 C.1     1  UNL1        0.1004
     35 N          63.0622   79.1189    9.4036 N.1     1  UNL1       -0.1908
@<TRIPOS>BOND
     1     1     2    1
     2     2     3    1
     3     3     4    2
     4     3     5    1
     5     5     6    1
     6     6    23    1
     7    23    24   ar
     8    24    25   ar
     9    25    28    1
    10    28    29   ar
    11    29    30   ar
    12    30    31   ar
    13    31    32   ar
    14    32    34    1
    15    34    35    3
    16    32    33   ar
    17    25    26   ar
    18    26    27   ar
    19     6     7    1
    20     7     8    1
    21     8    15    1
    22    15    16   ar
    23    16    17   ar
    24    17    18   ar
    25    18    19   ar
    26    19    20   ar
    27    20    21    1
    28    21    22    3
    29     8     9    1
    30    10     9    1
    31    10    11    1
    32    11    12    2
    33    11     2   am
    34    10     6    1
    35    27    23   ar
    36    20    15   ar
    37    33    28   ar
    38     4    13    1
    39     5    14    1
