@<TRIPOS>MOLECULE
*****
 33 36 0 0 0
SMALL
GASTEIGER

@<TRIPOS>ATOM
      1 C          61.3266   88.3357   10.1598 C.ar    1  UNL1        0.0951
      2 C          60.4255   88.2637    8.9629 C.ar    1  UNL1        0.1454
      3 F          59.4564   89.3746    8.6858 F       1  UNL1       -0.2040
      4 C          60.4933   87.0807    8.0431 C.ar    1  UNL1        0.0312
      5 C          61.4623   85.9698    8.3202 C.ar    1  UNL1        0.0204
      6 C          62.3635   86.0419    9.5172 C.ar    1  UNL1        0.0924
      7 C          62.2957   87.2248   10.4370 C.ar    1  UNL1        0.1598
      8 F          63.1969   87.2968   11.6339 F       1  UNL1       -0.2026
      9 C          61.2588   89.5187   11.0796 C.2     1  UNL1        0.2036
     10 O          59.9777   89.8453   11.7882 O.2     1  UNL1       -0.2863
     11 C          63.7965   90.5052   15.1173 C.2     1  UNL1        0.1673
     12 C          64.9552   91.4242   14.8667 C.2     1  UNL1        0.2683
     13 N          65.2227   91.9333   13.4813 N.2     1  UNL1       -0.0278
     14 C          64.3315   91.5234   12.3466 C.2     1  UNL1        0.3723
     15 N          64.3470   91.8619   10.8854 N.2     1  UNL1       -0.0307
     16 C          63.1979   91.1521   10.2329 C.2     1  UNL1        0.2390
     17 C          62.4721   90.3750   11.2908 C.2     1  UNL1        0.0897
     18 C          63.1728   90.6045   12.5972 C.2     1  UNL1        0.0806
     19 C          62.9053   90.0954   13.9826 C.3     1  UNL1        0.1023
     20 C          63.1228   88.5673   16.7113 C.3     1  UNL1        0.2522
     21 O          63.5291   89.9961   16.5027 O.2     1  UNL1       -0.4715
     22 N          63.3325   84.9309    9.7943 N.pl3   1  UNL1       -0.2127
     23 H          64.1354   84.8268    9.2341 H       1  UNL1        0.1738
     24 S          63.0783   83.9785   10.9249 S.O2    1  UNL1        0.0758
     25 O          61.7617   84.6458   11.1911 O.2     1  UNL1       -0.1499
     26 O          64.3951   83.3112   10.6588 O.2     1  UNL1       -0.1499
     27 C          62.8242   83.0261   12.0556 C.ar    1  UNL1        0.1524
     28 C          62.6603   81.5609   11.7795 C.ar    1  UNL1        0.0225
     29 C          62.4061   80.6084   12.9100 C.ar    1  UNL1        0.0015
     30 C          62.3159   81.1212   14.3168 C.ar    1  UNL1        0.0024
     31 C          62.4798   82.5864   14.5930 C.ar    1  UNL1        0.0310
     32 C          62.7340   83.5389   13.4624 C.ar    1  UNL1        0.1589
     33 F          62.8979   85.0040   13.7385 F       1  UNL1       -0.2027
@<TRIPOS>BOND
     1    20    21    1
     2    21    11    1
     3    11    12    2
     4    12    13    1
     5    13    14    2
     6    14    15    1
     7    15    16    2
     8    16    17    1
     9    17     9    1
    10     9    10    2
    11     9     1    1
    12     1     2   ar
    13     2     3    1
    14     2     4   ar
    15     4     5   ar
    16     5     6   ar
    17     6    22    1
    18    22    24    1
    19    24    25    2
    20    24    26    2
    21    24    27    1
    22    27    28   ar
    23    28    29   ar
    24    29    30   ar
    25    30    31   ar
    26    31    32   ar
    27    32    33    1
    28     6     7   ar
    29     7     8    1
    30    17    18    2
    31    18    19    1
    32    19    11    1
    33    18    14    1
    34     7     1   ar
    35    32    27   ar
    36    22    23    1
@<TRIPOS>MOLECULE
*****
 33 36 0 0 0
SMALL
GASTEIGER

@<TRIPOS>ATOM
      1 C          63.6025   88.4888   15.7655 C.ar    1  UNL1        0.0951
      2 C          63.2492   87.8771   17.0888 C.ar    1  UNL1        0.1454
      3 F          62.8891   88.7567   18.2492 F       1  UNL1       -0.2040
      4 C          63.2562   86.3860   17.2516 C.ar    1  UNL1        0.0312
      5 C          63.6163   85.5065   16.0911 C.ar    1  UNL1        0.0204
      6 C          63.9696   86.1182   14.7678 C.ar    1  UNL1        0.0924
      7 C          63.9627   87.6093   14.6050 C.ar    1  UNL1        0.1598
      8 F          64.3159   88.2209   13.2816 F       1  UNL1       -0.2026
      9 C          63.5956   89.9799   15.6027 C.2     1  UNL1        0.2036
     10 O          63.3705   90.8634   16.7938 O.2     1  UNL1       -0.2863
     11 C          67.4590   92.2767   13.7279 C.2     1  UNL1        0.1673
     12 C          67.2388   92.7279   12.3145 C.2     1  UNL1        0.2683
     13 N          65.9301   92.4533   11.6349 N.2     1  UNL1       -0.0278
     14 C          64.8416   91.7275   12.3687 C.2     1  UNL1        0.3723
     15 N          63.4573   91.3176   11.9617 N.2     1  UNL1       -0.0307
     16 C          62.8220   90.6130   13.1236 C.2     1  UNL1        0.2390
     17 C          63.8137   90.5875   14.2487 C.2     1  UNL1        0.0897
     18 C          65.0619   91.2763   13.7821 C.2     1  UNL1        0.0806
     19 C          66.3706   91.5509   14.4617 C.3     1  UNL1        0.1023
     20 C          68.8123   93.4312   15.6215 C.3     1  UNL1        0.2522
     21 O          68.7677   92.5513   14.4076 O.2     1  UNL1       -0.4715
     22 N          64.3297   85.2386   13.6073 N.pl3   1  UNL1       -0.2127
     23 H          64.9756   85.5523   12.9338 H       1  UNL1        0.1738
     24 S          63.7058   83.8812   13.4731 S.O2    1  UNL1        0.0758
     25 O          62.4852   84.5026   12.8617 O.2     1  UNL1       -0.1499
     26 O          64.9264   83.2597   14.0845 O.2     1  UNL1       -0.1499
     27 C          63.0819   82.5236   13.3388 C.ar    1  UNL1        0.1524
     28 C          62.0731   82.0590   14.3469 C.ar    1  UNL1        0.0225
     29 C          61.4492   80.7015   14.2128 C.ar    1  UNL1        0.0015
     30 C          61.8341   79.8087   13.0705 C.ar    1  UNL1        0.0024
     31 C          62.8430   80.2734   12.0624 C.ar    1  UNL1        0.0310
     32 C          63.4669   81.6308   12.1966 C.ar    1  UNL1        0.1589
     33 F          64.4758   82.0956   11.1886 F       1  UNL1       -0.2027
@<TRIPOS>BOND
     1    20    21    1
     2    21    11    1
     3    11    12    2
     4    12    13    1
     5    13    14    2
     6    14    15    1
     7    15    16    2
     8    16    17    1
     9    17     9    1
    10     9    10    2
    11     9     1    1
    12     1     2   ar
    13     2     3    1
    14     2     4   ar
    15     4     5   ar
    16     5     6   ar
    17     6    22    1
    18    22    24    1
    19    24    25    2
    20    24    26    2
    21    24    27    1
    22    27    28   ar
    23    28    29   ar
    24    29    30   ar
    25    30    31   ar
    26    31    32   ar
    27    32    33    1
    28     6     7   ar
    29     7     8    1
    30    17    18    2
    31    18    19    1
    32    19    11    1
    33    18    14    1
    34     7     1   ar
    35    32    27   ar
    36    22    23    1
@<TRIPOS>MOLECULE
*****
 33 36 0 0 0
SMALL
GASTEIGER

@<TRIPOS>ATOM
      1 C          61.8869   89.1695   11.6444 C.ar    1  UNL1        0.0951
      2 C          60.5624   89.5787   11.0715 C.ar    1  UNL1        0.1454
      3 F          59.9727   90.9121   11.4238 F       1  UNL1       -0.2040
      4 C          59.8276   88.6544   10.1464 C.ar    1  UNL1        0.0312
      5 C          60.4173   87.3209    9.7942 C.ar    1  UNL1        0.0204
      6 C          61.7419   86.9118   10.3671 C.ar    1  UNL1        0.0924
      7 C          62.4767   87.8360   11.2922 C.ar    1  UNL1        0.1598
      8 F          63.8012   87.4268   11.8650 F       1  UNL1       -0.2026
      9 C          62.6217   90.0938   12.5695 C.2     1  UNL1        0.2036
     10 O          62.3827   90.0207   14.0485 O.2     1  UNL1       -0.2863
     11 C          66.3448   92.4191   14.6785 C.2     1  UNL1        0.1673
     12 C          67.0627   93.3414   13.7384 C.2     1  UNL1        0.2683
     13 N          66.6060   93.4660   12.3151 N.2     1  UNL1       -0.0278
     14 C          65.4313   92.6682   11.8318 C.2     1  UNL1        0.3723
     15 N          64.7573   92.5835   10.4945 N.2     1  UNL1       -0.0307
     16 C          63.6228   91.6088   10.6080 C.2     1  UNL1        0.2390
     17 C          63.5956   91.0911   12.0155 C.2     1  UNL1        0.0897
     18 C          64.7134   91.7459   12.7719 C.2     1  UNL1        0.0806
     19 C          65.1701   91.6213   14.1952 C.3     1  UNL1        0.1023
     20 C          68.2657   92.3303   16.4255 C.3     1  UNL1        0.2522
     21 O          66.8015   92.2946   16.1018 O.2     1  UNL1       -0.4715
     22 N          62.3316   85.5783   10.0148 N.pl3   1  UNL1       -0.2127
     23 H          62.5312   85.3610    9.0756 H       1  UNL1        0.1738
     24 S          62.6172   84.5759   11.0936 S.O2    1  UNL1        0.0758
     25 O          61.6483   85.2754   12.0001 O.2     1  UNL1       -0.1499
     26 O          63.5862   83.8764   10.1871 O.2     1  UNL1       -0.1499
     27 C          62.9028   83.5735   12.1724 C.ar    1  UNL1        0.1524
     28 C          62.4854   82.1435   11.9968 C.ar    1  UNL1        0.0225
     29 C          62.7710   81.1411   13.0755 C.ar    1  UNL1        0.0015
     30 C          63.4740   81.5687   14.3297 C.ar    1  UNL1        0.0024
     31 C          63.8914   82.9987   14.5052 C.ar    1  UNL1        0.0310
     32 C          63.6058   84.0011   13.4265 C.ar    1  UNL1        0.1589
     33 F          64.0231   85.4311   13.6020 F       1  UNL1       -0.2027
@<TRIPOS>BOND
     1    20    21    1
     2    21    11    1
     3    11    12    2
     4    12    13    1
     5    13    14    2
     6    14    15    1
     7    15    16    2
     8    16    17    1
     9    17     9    1
    10     9    10    2
    11     9     1    1
    12     1     2   ar
    13     2     3    1
    14     2     4   ar
    15     4     5   ar
    16     5     6   ar
    17     6    22    1
    18    22    24    1
    19    24    25    2
    20    24    26    2
    21    24    27    1
    22    27    28   ar
    23    28    29   ar
    24    29    30   ar
    25    30    31   ar
    26    31    32   ar
    27    32    33    1
    28     6     7   ar
    29     7     8    1
    30    17    18    2
    31    18    19    1
    32    19    11    1
    33    18    14    1
    34     7     1   ar
    35    32    27   ar
    36    22    23    1
@<TRIPOS>MOLECULE
*****
 33 36 0 0 0
SMALL
GASTEIGER

@<TRIPOS>ATOM
      1 C          64.0408   84.5555   13.8707 C.ar    1  UNL1        0.0951
      2 C          63.8945   83.0934   14.1715 C.ar    1  UNL1        0.1454
      3 F          64.5020   82.5196   15.4173 F       1  UNL1       -0.2040
      4 C          63.1407   82.2049   13.2268 C.ar    1  UNL1        0.0312
      5 C          62.5332   82.7787   11.9811 C.ar    1  UNL1        0.0204
      6 C          62.6796   84.2410   11.6802 C.ar    1  UNL1        0.0924
      7 C          63.4334   85.1294   12.6250 C.ar    1  UNL1        0.1598
      8 F          63.5797   86.5916   12.3240 F       1  UNL1       -0.2026
      9 C          64.7946   85.4439   14.8154 C.2     1  UNL1        0.2036
     10 O          66.2877   85.3387   14.9139 O.2     1  UNL1       -0.2863
     11 C          64.4856   90.2936   14.4957 C.2     1  UNL1        0.1673
     12 C          63.6240   90.8939   15.5667 C.2     1  UNL1        0.2683
     13 N          62.9683   90.0093   16.5854 N.2     1  UNL1       -0.0278
     14 C          63.1743   88.5245   16.5330 C.2     1  UNL1        0.3723
     15 N          62.6611   87.4090   17.3946 N.2     1  UNL1       -0.0307
     16 C          63.2056   86.1192   16.8560 C.2     1  UNL1        0.2390
     17 C          64.0553   86.4376   15.6616 C.2     1  UNL1        0.0897
     18 C          64.0359   87.9242   15.4620 C.2     1  UNL1        0.0806
     19 C          64.6916   88.8087   14.4434 C.3     1  UNL1        0.1023
     20 C          66.4722   91.8037   13.7725 C.3     1  UNL1        0.2522
     21 O          65.1413   91.1781   13.4770 O.2     1  UNL1       -0.4715
     22 N          62.0721   84.8147   10.4345 N.pl3   1  UNL1       -0.2127
     23 H          61.8535   84.2253    9.6769 H       1  UNL1        0.1738
     24 S          61.7978   86.2866   10.3431 S.O2    1  UNL1        0.0758
     25 O          60.9394   86.2029   11.5702 O.2     1  UNL1       -0.1499
     26 O          62.6563   86.3704    9.1159 O.2     1  UNL1       -0.1499
     27 C          61.5235   87.7585   10.2516 C.ar    1  UNL1        0.1524
     28 C          62.5187   88.7419   10.7925 C.ar    1  UNL1        0.0225
     29 C          62.2445   90.2137   10.7011 C.ar    1  UNL1        0.0015
     30 C          60.9751   90.7023   10.0688 C.ar    1  UNL1        0.0024
     31 C          59.9798   89.7190    9.5279 C.ar    1  UNL1        0.0310
     32 C          60.2541   88.2471    9.6193 C.ar    1  UNL1        0.1589
     33 F          59.2589   87.2637    9.0785 F       1  UNL1       -0.2027
@<TRIPOS>BOND
     1    20    21    1
     2    21    11    1
     3    11    12    2
     4    12    13    1
     5    13    14    2
     6    14    15    1
     7    15    16    2
     8    16    17    1
     9    17     9    1
    10     9    10    2
    11     9     1    1
    12     1     2   ar
    13     2     3    1
    14     2     4   ar
    15     4     5   ar
    16     5     6   ar
    17     6    22    1
    18    22    24    1
    19    24    25    2
    20    24    26    2
    21    24    27    1
    22    27    28   ar
    23    28    29   ar
    24    29    30   ar
    25    30    31   ar
    26    31    32   ar
    27    32    33    1
    28     6     7   ar
    29     7     8    1
    30    17    18    2
    31    18    19    1
    32    19    11    1
    33    18    14    1
    34     7     1   ar
    35    32    27   ar
    36    22    23    1
@<TRIPOS>MOLECULE
*****
 33 36 0 0 0
SMALL
GASTEIGER

@<TRIPOS>ATOM
      1 C          63.6854   88.6816   15.7377 C.ar    1  UNL1        0.0951
      2 C          63.2998   88.0611   17.0478 C.ar    1  UNL1        0.1454
      3 F          62.9715   88.9335   18.2230 F       1  UNL1       -0.2040
      4 C          63.2425   86.5683   17.1826 C.ar    1  UNL1        0.0312
      5 C          63.5707   85.6959   16.0074 C.ar    1  UNL1        0.0204
      6 C          63.9564   86.3165   14.6973 C.ar    1  UNL1        0.0924
      7 C          64.0137   87.8093   14.5624 C.ar    1  UNL1        0.1598
      8 F          64.3994   88.4297   13.2523 F       1  UNL1       -0.2026
      9 C          63.7428   90.1744   15.6029 C.2     1  UNL1        0.2036
     10 O          63.1418   91.0471   16.6646 O.2     1  UNL1       -0.2863
     11 C          62.1354   90.7939   11.0478 C.2     1  UNL1        0.1673
     12 C          63.1396   91.4714   10.1632 C.2     1  UNL1        0.2683
     13 N          64.4731   91.8780   10.7166 N.2     1  UNL1       -0.0278
     14 C          64.8025   91.6071   12.1547 C.2     1  UNL1        0.3723
     15 N          66.0259   91.8909   12.9749 N.2     1  UNL1       -0.0307
     16 C          65.7779   91.3888   14.3664 C.2     1  UNL1        0.2390
     17 C          64.4012   90.7946   14.4062 C.2     1  UNL1        0.0897
     18 C          63.7984   90.9295   13.0393 C.2     1  UNL1        0.0806
     19 C          62.4648   90.5229   12.4858 C.3     1  UNL1        0.1023
     20 C          60.4611   88.9336   10.3506 C.3     1  UNL1        0.2522
     21 O          60.8019   90.3873   10.4943 O.2     1  UNL1       -0.4715
     22 N          64.2847   85.4441   13.5220 N.pl3   1  UNL1       -0.2127
     23 H          64.8898   85.7730   12.8186 H       1  UNL1        0.1738
     24 S          63.6909   84.0705   13.4186 S.O2    1  UNL1        0.0758
     25 O          62.4376   84.6558   12.8387 O.2     1  UNL1       -0.1499
     26 O          64.9443   83.4850   13.9985 O.2     1  UNL1       -0.1499
     27 C          63.0972   82.6968   13.3151 C.ar    1  UNL1        0.1524
     28 C          62.1137   82.2254   14.3449 C.ar    1  UNL1        0.0225
     29 C          61.5200   80.8518   14.2415 C.ar    1  UNL1        0.0015
     30 C          61.9098   79.9496   13.1084 C.ar    1  UNL1        0.0024
     31 C          62.8934   80.4209   12.0786 C.ar    1  UNL1        0.0310
     32 C          63.4871   81.7945   12.1820 C.ar    1  UNL1        0.1589
     33 F          64.4706   82.2660   11.1522 F       1  UNL1       -0.2027
@<TRIPOS>BOND
     1    20    21    1
     2    21    11    1
     3    11    12    2
     4    12    13    1
     5    13    14    2
     6    14    15    1
     7    15    16    2
     8    16    17    1
     9    17     9    1
    10     9    10    2
    11     9     1    1
    12     1     2   ar
    13     2     3    1
    14     2     4   ar
    15     4     5   ar
    16     5     6   ar
    17     6    22    1
    18    22    24    1
    19    24    25    2
    20    24    26    2
    21    24    27    1
    22    27    28   ar
    23    28    29   ar
    24    29    30   ar
    25    30    31   ar
    26    31    32   ar
    27    32    33    1
    28     6     7   ar
    29     7     8    1
    30    17    18    2
    31    18    19    1
    32    19    11    1
    33    18    14    1
    34     7     1   ar
    35    32    27   ar
    36    22    23    1
@<TRIPOS>MOLECULE
*****
 33 36 0 0 0
SMALL
GASTEIGER

@<TRIPOS>ATOM
      1 C          63.5666   88.5284   15.4673 C.ar    1  UNL1        0.0951
      2 C          63.0476   88.2489   16.8466 C.ar    1  UNL1        0.1454
      3 F          62.4587   89.3591   17.6655 F       1  UNL1       -0.2040
      4 C          63.1176   86.8593   17.4070 C.ar    1  UNL1        0.0312
      5 C          63.7065   85.7491   16.5881 C.ar    1  UNL1        0.0204
      6 C          64.2255   86.0287   15.2087 C.ar    1  UNL1        0.0924
      7 C          64.1556   87.4183   14.6483 C.ar    1  UNL1        0.1598
      8 F          64.6746   87.6977   13.2690 F       1  UNL1       -0.2026
      9 C          63.4966   89.9180   14.9069 C.2     1  UNL1        0.2036
     10 O          62.6496   90.1988   13.7012 O.2     1  UNL1       -0.2863
     11 C          67.7444   91.9612   13.6829 C.2     1  UNL1        0.1673
     12 C          68.1566   93.0549   14.6230 C.2     1  UNL1        0.2683
     13 N          67.2837   93.4094   15.7901 N.2     1  UNL1       -0.0278
     14 C          65.9984   92.6701   16.0172 C.2     1  UNL1        0.3723
     15 N          64.9408   92.7967   17.0733 N.2     1  UNL1       -0.0307
     16 C          63.8748   91.7812   16.7859 C.2     1  UNL1        0.2390
     17 C          64.2737   91.0269   15.5522 C.2     1  UNL1        0.0897
     18 C          65.5862   91.5763   15.0772 C.2     1  UNL1        0.0806
     19 C          66.4592   91.2219   13.9100 C.3     1  UNL1        0.1023
     20 C          68.1669   91.9200   11.1198 C.3     1  UNL1        0.2522
     21 O          68.6174   91.6067   12.5158 O.2     1  UNL1       -0.4715
     22 N          64.8145   84.9185   14.3898 N.pl3   1  UNL1       -0.2127
     23 H          65.7369   84.9908   14.0535 H       1  UNL1        0.1738
     24 S          63.9980   83.6981   14.0832 S.O2    1  UNL1        0.0758
     25 O          63.4608   84.3665   12.8526 O.2     1  UNL1       -0.1499
     26 O          64.5351   83.0296   15.3139 O.2     1  UNL1       -0.1499
     27 C          63.1815   82.4776   13.7767 C.ar    1  UNL1        0.1524
     28 C          61.9263   82.2014   14.5501 C.ar    1  UNL1        0.0225
     29 C          61.1098   80.9810   14.2437 C.ar    1  UNL1        0.0015
     30 C          61.5484   80.0369   13.1638 C.ar    1  UNL1        0.0024
     31 C          62.8036   80.3131   12.3903 C.ar    1  UNL1        0.0310
     32 C          63.6201   81.5335   12.6968 C.ar    1  UNL1        0.1589
     33 F          64.8753   81.8098   11.9234 F       1  UNL1       -0.2027
@<TRIPOS>BOND
     1    20    21    1
     2    21    11    1
     3    11    12    2
     4    12    13    1
     5    13    14    2
     6    14    15    1
     7    15    16    2
     8    16    17    1
     9    17     9    1
    10     9    10    2
    11     9     1    1
    12     1     2   ar
    13     2     3    1
    14     2     4   ar
    15     4     5   ar
    16     5     6   ar
    17     6    22    1
    18    22    24    1
    19    24    25    2
    20    24    26    2
    21    24    27    1
    22    27    28   ar
    23    28    29   ar
    24    29    30   ar
    25    30    31   ar
    26    31    32   ar
    27    32    33    1
    28     6     7   ar
    29     7     8    1
    30    17    18    2
    31    18    19    1
    32    19    11    1
    33    18    14    1
    34     7     1   ar
    35    32    27   ar
    36    22    23    1
@<TRIPOS>MOLECULE
*****
 33 36 0 0 0
SMALL
GASTEIGER

@<TRIPOS>ATOM
      1 C          63.7299   88.4272   15.2772 C.ar    1  UNL1        0.0951
      2 C          63.0266   88.8125   16.5448 C.ar    1  UNL1        0.1454
      3 F          62.6298   90.2401   16.7782 F       1  UNL1       -0.2040
      4 C          62.7199   87.7702   17.5790 C.ar    1  UNL1        0.0312
      5 C          63.1167   86.3425   17.3456 C.ar    1  UNL1        0.0204
      6 C          63.8201   85.9573   16.0779 C.ar    1  UNL1        0.0924
      7 C          64.1267   86.9996   15.0437 C.ar    1  UNL1        0.1598
      8 F          64.8301   86.6142   13.7761 F       1  UNL1       -0.2026
      9 C          64.0365   89.4695   14.2430 C.2     1  UNL1        0.2036
     10 O          63.6806   89.2278   12.8060 O.2     1  UNL1       -0.2863
     11 C          65.8363   93.1058   11.5495 C.2     1  UNL1        0.1673
     12 C          66.4170   94.2125   12.3790 C.2     1  UNL1        0.2683
     13 N          66.3981   94.1170   13.8758 N.2     1  UNL1       -0.0278
     14 C          65.7987   92.9149   14.5432 C.2     1  UNL1        0.3723
     15 N          65.6386   92.5443   15.9878 N.2     1  UNL1       -0.0307
     16 C          64.9590   91.2086   16.0512 C.2     1  UNL1        0.2390
     17 C          64.6991   90.7536   14.6458 C.2     1  UNL1        0.0897
     18 C          65.2181   91.8082   13.7137 C.2     1  UNL1        0.0806
     19 C          65.2369   91.9036   12.2169 C.3     1  UNL1        0.1023
     20 C          66.9578   93.9482    9.3626 C.3     1  UNL1        0.2522
     21 O          65.8552   93.2012   10.0527 O.2     1  UNL1       -0.4715
     22 N          64.2168   84.5297   15.8445 N.pl3   1  UNL1       -0.2127
     23 H          64.6355   84.0104   16.5687 H       1  UNL1        0.1738
     24 S          63.9756   83.8931   14.5079 S.O2    1  UNL1        0.0758
     25 O          62.4953   83.9789   14.7341 O.2     1  UNL1       -0.1499
     26 O          65.4559   83.8073   14.2816 O.2     1  UNL1       -0.1499
     27 C          63.7344   83.2565   13.1712 C.ar    1  UNL1        0.1524
     28 C          63.9223   84.0551   11.9154 C.ar    1  UNL1        0.0225
     29 C          63.6812   83.4185   10.5788 C.ar    1  UNL1        0.0015
     30 C          63.2522   81.9835   10.4979 C.ar    1  UNL1        0.0024
     31 C          63.0643   81.1849   11.7537 C.ar    1  UNL1        0.0310
     32 C          63.3054   81.8214   13.0903 C.ar    1  UNL1        0.1589
     33 F          63.1176   81.0230   14.3461 F       1  UNL1       -0.2027
@<TRIPOS>BOND
     1    20    21    1
     2    21    11    1
     3    11    12    2
     4    12    13    1
     5    13    14    2
     6    14    15    1
     7    15    16    2
     8    16    17    1
     9    17     9    1
    10     9    10    2
    11     9     1    1
    12     1     2   ar
    13     2     3    1
    14     2     4   ar
    15     4     5   ar
    16     5     6   ar
    17     6    22    1
    18    22    24    1
    19    24    25    2
    20    24    26    2
    21    24    27    1
    22    27    28   ar
    23    28    29   ar
    24    29    30   ar
    25    30    31   ar
    26    31    32   ar
    27    32    33    1
    28     6     7   ar
    29     7     8    1
    30    17    18    2
    31    18    19    1
    32    19    11    1
    33    18    14    1
    34     7     1   ar
    35    32    27   ar
    36    22    23    1
@<TRIPOS>MOLECULE
*****
 33 36 0 0 0
SMALL
GASTEIGER

@<TRIPOS>ATOM
      1 C          61.7250   86.4985    9.3788 C.ar    1  UNL1        0.0951
      2 C          60.6411   86.3065    8.3599 C.ar    1  UNL1        0.1454
      3 F          60.4083   84.9520    7.7589 F       1  UNL1       -0.2040
      4 C          59.7901   87.4689    7.9420 C.ar    1  UNL1        0.0312
      5 C          60.0230   88.8233    8.5431 C.ar    1  UNL1        0.0204
      6 C          61.1069   89.0153    9.5621 C.ar    1  UNL1        0.0924
      7 C          61.9579   87.8529    9.9800 C.ar    1  UNL1        0.1598
      8 F          63.0418   88.0450   10.9989 F       1  UNL1       -0.2026
      9 C          62.5760   85.3361    9.7967 C.2     1  UNL1        0.2036
     10 O          63.3589   84.5724    8.7702 O.2     1  UNL1       -0.2863
     11 C          62.8336   80.9411   11.8786 C.2     1  UNL1        0.1673
     12 C          62.8841   81.0084   13.3762 C.2     1  UNL1        0.2683
     13 N          62.8533   82.3387   14.0687 N.2     1  UNL1       -0.0278
     14 C          62.7720   83.6016   13.2635 C.2     1  UNL1        0.3723
     15 N          62.7260   85.0463   13.6644 N.2     1  UNL1       -0.0307
     16 C          62.6470   85.8719   12.4145 C.2     1  UNL1        0.2390
     17 C          62.6442   84.9375   11.2412 C.2     1  UNL1        0.0897
     18 C          62.7214   83.5343   11.7659 C.2     1  UNL1        0.0806
     19 C          62.7522   82.2041   11.0734 C.3     1  UNL1        0.1023
     20 C          62.8318   79.5443    9.6880 C.3     1  UNL1        0.2522
     21 O          62.8643   79.6109   11.1861 O.2     1  UNL1       -0.4715
     22 N          61.3398   90.3697   10.1631 N.pl3   1  UNL1       -0.2127
     23 H          60.7721   91.1296    9.8992 H       1  UNL1        0.1738
     24 S          62.4375   90.5665   11.1662 S.O2    1  UNL1        0.0758
     25 O          61.4869   90.2223   12.2742 O.2     1  UNL1       -0.1499
     26 O          63.3883   90.9106   10.0583 O.2     1  UNL1       -0.1499
     27 C          63.5354   90.7632   12.1693 C.ar    1  UNL1        0.1524
     28 C          63.6248   89.8669   13.3687 C.ar    1  UNL1        0.0225
     29 C          64.7226   90.0636   14.3718 C.ar    1  UNL1        0.0015
     30 C          65.7309   91.1567   14.1755 C.ar    1  UNL1        0.0024
     31 C          65.6415   92.0530   12.9761 C.ar    1  UNL1        0.0310
     32 C          64.5437   91.8563   11.9730 C.ar    1  UNL1        0.1589
     33 F          64.4542   92.7526   10.7736 F       1  UNL1       -0.2027
@<TRIPOS>BOND
     1    20    21    1
     2    21    11    1
     3    11    12    2
     4    12    13    1
     5    13    14    2
     6    14    15    1
     7    15    16    2
     8    16    17    1
     9    17     9    1
    10     9    10    2
    11     9     1    1
    12     1     2   ar
    13     2     3    1
    14     2     4   ar
    15     4     5   ar
    16     5     6   ar
    17     6    22    1
    18    22    24    1
    19    24    25    2
    20    24    26    2
    21    24    27    1
    22    27    28   ar
    23    28    29   ar
    24    29    30   ar
    25    30    31   ar
    26    31    32   ar
    27    32    33    1
    28     6     7   ar
    29     7     8    1
    30    17    18    2
    31    18    19    1
    32    19    11    1
    33    18    14    1
    34     7     1   ar
    35    32    27   ar
    36    22    23    1
@<TRIPOS>MOLECULE
*****
 33 36 0 0 0
SMALL
GASTEIGER

@<TRIPOS>ATOM
      1 C          62.0390   86.3308   10.3971 C.ar    1  UNL1        0.0951
      2 C          61.1198   86.3505    9.2119 C.ar    1  UNL1        0.1454
      3 F          61.0178   85.1474    8.3219 F       1  UNL1       -0.2040
      4 C          60.3027   87.5733    8.9167 C.ar    1  UNL1        0.0312
      5 C          60.4047   88.7764    9.8067 C.ar    1  UNL1        0.0204
      6 C          61.3239   88.7567   10.9920 C.ar    1  UNL1        0.0924
      7 C          62.1410   87.5339   11.2872 C.ar    1  UNL1        0.1598
      8 F          63.0602   87.5143   12.4724 F       1  UNL1       -0.2026
      9 C          62.8561   85.1081   10.6923 C.2     1  UNL1        0.2036
     10 O          63.7308   84.5155    9.6275 O.2     1  UNL1       -0.2863
     11 C          62.7351   80.4271   12.0304 C.2     1  UNL1        0.1673
     12 C          62.6802   80.2484   13.5187 C.2     1  UNL1        0.2683
     13 N          62.6677   81.4486   14.4183 N.2     1  UNL1       -0.0278
     14 C          62.7101   82.8276   13.8297 C.2     1  UNL1        0.3723
     15 N          62.7096   84.1885   14.4603 N.2     1  UNL1       -0.0307
     16 C          62.7643   85.2085   13.3618 C.2     1  UNL1        0.2390
     17 C          62.7985   84.4779   12.0522 C.2     1  UNL1        0.0897
     18 C          62.7651   83.0063   12.3415 C.2     1  UNL1        0.0806
     19 C          62.7775   81.8061   11.4418 C.3     1  UNL1        0.1023
     20 C          62.8061   79.4057    9.6427 C.3     1  UNL1        0.2522
     21 O          62.7475   79.2269   11.1308 O.2     1  UNL1       -0.4715
     22 N          61.4259   89.9598   11.8820 N.pl3   1  UNL1       -0.2127
     23 H          60.6099   90.4271   12.1734 H       1  UNL1        0.1738
     24 S          62.7713   90.4508   12.3280 S.O2    1  UNL1        0.0758
     25 O          63.1434   90.7273   10.9015 O.2     1  UNL1       -0.1499
     26 O          62.3992   90.1744   13.7546 O.2     1  UNL1       -0.1499
     27 C          64.1166   90.9419   12.7741 C.ar    1  UNL1        0.1524
     28 C          64.8093   92.0301   12.0087 C.ar    1  UNL1        0.0225
     29 C          66.1547   92.5212   12.4547 C.ar    1  UNL1        0.0015
     30 C          66.8072   91.9241   13.6662 C.ar    1  UNL1        0.0024
     31 C          66.1145   90.8359   14.4316 C.ar    1  UNL1        0.0310
     32 C          64.7692   90.3448   13.9856 C.ar    1  UNL1        0.1589
     33 F          64.0764   89.2566   14.7509 F       1  UNL1       -0.2027
@<TRIPOS>BOND
     1    20    21    1
     2    21    11    1
     3    11    12    2
     4    12    13    1
     5    13    14    2
     6    14    15    1
     7    15    16    2
     8    16    17    1
     9    17     9    1
    10     9    10    2
    11     9     1    1
    12     1     2   ar
    13     2     3    1
    14     2     4   ar
    15     4     5   ar
    16     5     6   ar
    17     6    22    1
    18    22    24    1
    19    24    25    2
    20    24    26    2
    21    24    27    1
    22    27    28   ar
    23    28    29   ar
    24    29    30   ar
    25    30    31   ar
    26    31    32   ar
    27    32    33    1
    28     6     7   ar
    29     7     8    1
    30    17    18    2
    31    18    19    1
    32    19    11    1
    33    18    14    1
    34     7     1   ar
    35    32    27   ar
    36    22    23    1
