@<TRIPOS>MOLECULE
*****
 41 46 0 0 0
SMALL
GASTEIGER

@<TRIPOS>ATOM
      1 C          61.7867   88.4452   10.2460 C.ar    1  UNL1        0.0658
      2 C          61.9894   87.1579   10.9890 C.ar    1  UNL1        0.0160
      3 C          62.9247   87.1074   12.1605 C.ar    1  UNL1        0.0037
      4 C          63.6573   88.3441   12.5892 C.ar    1  UNL1        0.0173
      5 C          63.4547   89.6314   11.8463 C.ar    1  UNL1        0.0616
      6 C          62.5193   89.6819   10.6747 C.ar    1  UNL1        0.0319
      7 C          62.5213   91.0833   10.1400 C.ar    1  UNL1        0.0214
      8 C          63.4578   91.8990   10.9812 C.ar    1  UNL1        0.0764
      9 N          64.0347   91.0017   12.0357 N.ar    1  UNL1       -0.3196
     10 C          63.1274   85.8202   12.9036 C.2     1  UNL1        0.0127
     11 C          63.2056   85.6650   14.3935 C.2     1  UNL1        0.0616
     12 N          63.4140   84.2110   14.6977 N.pl3   1  UNL1       -0.2954
     13 C          63.5483   83.6066   16.0640 C.3     1  UNL1        0.1129
     14 C          63.4647   83.4677   13.3959 C.3     1  UNL1        0.1750
     15 C          63.6493   82.0136   13.0769 C.2     1  UNL1        0.2679
     16 O          63.8264   81.0191   14.1858 O.2     1  UNL1       -0.2708
     17 N          63.6567   81.5541   11.6490 N.am    1  UNL1       -0.1762
     18 C          63.4796   82.5486   10.5401 C.2     1  UNL1        0.0884
     19 C          63.2950   84.0026   10.8591 C.2     1  UNL1        0.0158
     20 C          63.2876   84.4621   12.2870 C.2     1  UNL1        0.0071
     21 N          60.8513   88.4956    9.0744 N.pl3   1  UNL1       -0.2187
     22 H          60.4928   89.3596    8.7676 H       1  UNL1        0.1734
     23 S          60.4623   87.2296    8.3703 S.O2    1  UNL1        0.0539
     24 O          59.0383   87.6976    8.3154 O.2     1  UNL1       -0.1545
     25 O          61.8864   86.7616    8.4251 O.2     1  UNL1       -0.1545
     26 C          61.1197   85.1327    6.9844 C.3     1  UNL1        0.0292
     27 C          60.0734   85.9635    7.6662 C.3     1  UNL1        0.1724
     28 C          65.0188   91.4040   13.0939 C.3     1  UNL1        0.1385
     29 C          64.4195   90.3996   14.0331 C.3     1  UNL1        0.0350
     30 C          65.6181   92.4083   12.1547 C.ar    1  UNL1        0.0828
     31 C          66.2623   91.9515   10.8793 C.ar    1  UNL1        0.0169
     32 C          66.8616   92.9558    9.9401 C.ar    1  UNL1        0.0029
     33 C          66.8167   94.4169   10.2761 C.ar    1  UNL1        0.0207
     34 C          66.1725   94.8739   11.5514 C.ar    1  UNL1        0.0985
     35 N          65.5732   93.8695   12.4906 N.ar    1  UNL1       -0.2460
     36 C          66.0029   91.8063   14.1520 C.ar    1  UNL1        0.0828
     37 C          67.4751   91.6778   13.8949 C.ar    1  UNL1        0.0169
     38 C          68.4592   92.0801   14.9529 C.ar    1  UNL1        0.0029
     39 C          67.9712   92.6109   16.2682 C.ar    1  UNL1        0.0207
     40 C          66.4990   92.7394   16.5254 C.ar    1  UNL1        0.0985
     41 N          65.5148   92.3371   15.4672 N.ar    1  UNL1       -0.2460
@<TRIPOS>BOND
     1    26    27    1
     2    27    23    1
     3    23    24    2
     4    23    25    2
     5    23    21    1
     6    21     1    1
     7     1     2   ar
     8     2     3   ar
     9     3    10    1
    10    10    11    2
    11    11    12    1
    12    12    13    1
    13    12    14    1
    14    14    15    1
    15    15    16    2
    16    15    17    1
    17    17    18    2
    18    18    19    1
    19    19    20    2
    20     3     4   ar
    21     4     5   ar
    22     5     6   ar
    23     6     7   ar
    24     7     8   ar
    25     8     9   ar
    26     9    28    1
    27    28    29    1
    28    28    30    1
    29    30    31   ar
    30    31    32   ar
    31    32    33   ar
    32    33    34   ar
    33    34    35   ar
    34    28    36    1
    35    36    37   ar
    36    37    38   ar
    37    38    39   ar
    38    39    40   ar
    39    40    41   ar
    40     6     1   ar
    41    35    30   ar
    42    41    36   ar
    43    20    10    1
    44     9     5   ar
    45    20    14    1
    46    21    22    1
@<TRIPOS>MOLECULE
*****
 41 46 0 0 0
SMALL
GASTEIGER

@<TRIPOS>ATOM
      1 C          61.3452   87.9302   10.4714 C.ar    1  UNL1        0.0658
      2 C          61.7312   86.6582   11.1665 C.ar    1  UNL1        0.0160
      3 C          62.7949   86.6744   12.2239 C.ar    1  UNL1        0.0037
      4 C          63.4726   87.9625   12.5864 C.ar    1  UNL1        0.0173
      5 C          63.0866   89.2345   11.8913 C.ar    1  UNL1        0.0616
      6 C          62.0230   89.2184   10.8338 C.ar    1  UNL1        0.0319
      7 C          61.8544   90.6191   10.3244 C.ar    1  UNL1        0.0214
      8 C          62.8140   91.5009   11.0671 C.ar    1  UNL1        0.0764
      9 N          63.5756   90.6452   12.0355 N.ar    1  UNL1       -0.3196
     10 C          63.1809   85.4024   12.9191 C.2     1  UNL1        0.0127
     11 C          63.5276   85.2617   14.3716 C.2     1  UNL1        0.0616
     12 N          63.8489   83.8201   14.6338 N.pl3   1  UNL1       -0.2954
     13 C          64.2483   83.2319   15.9547 C.3     1  UNL1        0.1129
     14 C          63.7007   83.0700   13.3434 C.3     1  UNL1        0.1750
     15 C          63.8884   81.6227   12.9964 C.2     1  UNL1        0.2679
     16 O          64.3013   80.6448   14.0562 O.2     1  UNL1       -0.2708
     17 N          63.6632   81.1535   11.5895 N.am    1  UNL1       -0.1762
     18 C          63.2503   82.1314   10.5297 C.2     1  UNL1        0.0884
     19 C          63.0626   83.5786   10.8767 C.2     1  UNL1        0.0158
     20 C          63.2878   84.0479   12.2836 C.2     1  UNL1        0.0071
     21 N          60.2815   87.9140    9.4139 N.pl3   1  UNL1       -0.2187
     22 H          59.6141   88.6368    9.3758 H       1  UNL1        0.1734
     23 S          60.2346   86.7965    8.4144 S.O2    1  UNL1        0.0539
     24 O          61.7286   86.6782    8.4764 O.2     1  UNL1       -0.1545
     25 O          58.7405   86.9149    8.3524 O.2     1  UNL1       -0.1545
     26 C          61.4620   85.0692    6.9113 C.3     1  UNL1        0.0292
     27 C          60.1875   85.6791    7.4149 C.3     1  UNL1        0.1724
     28 C          64.6392   91.1174   12.9819 C.3     1  UNL1        0.1385
     29 C          65.2148   91.9851   11.9021 C.3     1  UNL1        0.0350
     30 C          64.0637   90.2497   14.0616 C.ar    1  UNL1        0.0828
     31 C          64.8492   89.0840   14.5855 C.ar    1  UNL1        0.0169
     32 C          64.2737   88.2164   15.6653 C.ar    1  UNL1        0.0029
     33 C          62.9128   88.5143   16.2211 C.ar    1  UNL1        0.0207
     34 C          62.1272   89.6799   15.6974 C.ar    1  UNL1        0.0985
     35 N          62.7028   90.5476   14.6176 N.ar    1  UNL1       -0.2460
     36 C          65.7029   91.5896   13.9282 C.ar    1  UNL1        0.0828
     37 C          67.1454   91.5424   13.5193 C.ar    1  UNL1        0.0169
     38 C          68.2091   92.0145   14.4656 C.ar    1  UNL1        0.0029
     39 C          67.8304   92.5339   15.8209 C.ar    1  UNL1        0.0207
     40 C          66.3880   92.5810   16.2299 C.ar    1  UNL1        0.0985
     41 N          65.3242   92.1089   15.2835 N.ar    1  UNL1       -0.2460
@<TRIPOS>BOND
     1    26    27    1
     2    27    23    1
     3    23    24    2
     4    23    25    2
     5    23    21    1
     6    21     1    1
     7     1     2   ar
     8     2     3   ar
     9     3    10    1
    10    10    11    2
    11    11    12    1
    12    12    13    1
    13    12    14    1
    14    14    15    1
    15    15    16    2
    16    15    17    1
    17    17    18    2
    18    18    19    1
    19    19    20    2
    20     3     4   ar
    21     4     5   ar
    22     5     6   ar
    23     6     7   ar
    24     7     8   ar
    25     8     9   ar
    26     9    28    1
    27    28    29    1
    28    28    30    1
    29    30    31   ar
    30    31    32   ar
    31    32    33   ar
    32    33    34   ar
    33    34    35   ar
    34    28    36    1
    35    36    37   ar
    36    37    38   ar
    37    38    39   ar
    38    39    40   ar
    39    40    41   ar
    40     6     1   ar
    41    35    30   ar
    42    41    36   ar
    43    20    10    1
    44     9     5   ar
    45    20    14    1
    46    21    22    1
@<TRIPOS>MOLECULE
*****
 41 46 0 0 0
SMALL
GASTEIGER

@<TRIPOS>ATOM
      1 C          61.6225   89.2176    9.8312 C.ar    1  UNL1        0.0658
      2 C          61.7643   87.8570   10.4467 C.ar    1  UNL1        0.0160
      3 C          62.7368   87.6385   11.5675 C.ar    1  UNL1        0.0037
      4 C          63.5676   88.7805   12.0730 C.ar    1  UNL1        0.0173
      5 C          63.4258   90.1411   11.4576 C.ar    1  UNL1        0.0616
      6 C          62.4533   90.3596   10.3367 C.ar    1  UNL1        0.0319
      7 C          62.5310   91.8013    9.9299 C.ar    1  UNL1        0.0214
      8 C          63.5517   92.4738   10.7994 C.ar    1  UNL1        0.0764
      9 N          64.1047   91.4477   11.7436 N.ar    1  UNL1       -0.3196
     10 C          62.8786   86.2779   12.1830 C.2     1  UNL1        0.0127
     11 C          62.4615   84.9796   11.5580 C.2     1  UNL1        0.0616
     12 N          62.7876   83.8761   12.5203 N.pl3   1  UNL1       -0.2954
     13 C          62.5388   82.4132   12.3014 C.3     1  UNL1        0.1129
     14 C          63.4062   84.4924   13.7400 C.3     1  UNL1        0.1750
     15 C          63.9256   83.8936   15.0135 C.2     1  UNL1        0.2679
     16 O          63.8693   82.4093   15.2220 O.2     1  UNL1       -0.2708
     17 N          64.5012   84.7794   16.0786 N.am    1  UNL1       -0.1762
     18 C          64.5575   86.2637   15.8701 C.2     1  UNL1        0.0884
     19 C          64.0381   86.8624   14.5966 C.2     1  UNL1        0.0158
     20 C          63.4625   85.9767   13.5315 C.2     1  UNL1        0.0071
     21 N          60.6499   89.4360    8.7103 N.pl3   1  UNL1       -0.2187
     22 H          60.5605   90.3278    8.3029 H       1  UNL1        0.1734
     23 S          59.8136   88.2957    8.2100 S.O2    1  UNL1        0.0539
     24 O          60.0245   88.7598    6.7993 O.2     1  UNL1       -0.1545
     25 O          59.6027   87.8317    9.6208 O.2     1  UNL1       -0.1545
     26 C          59.6215   85.8422    7.3775 C.3     1  UNL1        0.0292
     27 C          58.9773   87.1554    7.7099 C.3     1  UNL1        0.1724
     28 C          65.1526   91.6864   12.7900 C.3     1  UNL1        0.1385
     29 C          64.4502   90.7331   13.7108 C.3     1  UNL1        0.0350
     30 C          65.8549   92.6398   11.8692 C.ar    1  UNL1        0.0828
     31 C          65.8641   94.1084   12.1749 C.ar    1  UNL1        0.0169
     32 C          66.5664   95.0617   11.2541 C.ar    1  UNL1        0.0029
     33 C          67.2595   94.5466   10.0277 C.ar    1  UNL1        0.0207
     34 C          67.2503   93.0781    9.7219 C.ar    1  UNL1        0.0985
     35 N          66.5480   92.1248   10.6427 N.ar    1  UNL1       -0.2460
     36 C          66.2004   91.9252   13.8364 C.ar    1  UNL1        0.0828
     37 C          67.6455   91.6747   13.5215 C.ar    1  UNL1        0.0169
     38 C          68.6934   91.9134   14.5678 C.ar    1  UNL1        0.0029
     39 C          68.2963   92.4026   15.9291 C.ar    1  UNL1        0.0207
     40 C          66.8513   92.6530   16.2440 C.ar    1  UNL1        0.0985
     41 N          65.8033   92.4143   15.1976 N.ar    1  UNL1       -0.2460
@<TRIPOS>BOND
     1    26    27    1
     2    27    23    1
     3    23    24    2
     4    23    25    2
     5    23    21    1
     6    21     1    1
     7     1     2   ar
     8     2     3   ar
     9     3    10    1
    10    10    11    2
    11    11    12    1
    12    12    13    1
    13    12    14    1
    14    14    15    1
    15    15    16    2
    16    15    17    1
    17    17    18    2
    18    18    19    1
    19    19    20    2
    20     3     4   ar
    21     4     5   ar
    22     5     6   ar
    23     6     7   ar
    24     7     8   ar
    25     8     9   ar
    26     9    28    1
    27    28    29    1
    28    28    30    1
    29    30    31   ar
    30    31    32   ar
    31    32    33   ar
    32    33    34   ar
    33    34    35   ar
    34    28    36    1
    35    36    37   ar
    36    37    38   ar
    37    38    39   ar
    38    39    40   ar
    39    40    41   ar
    40     6     1   ar
    41    35    30   ar
    42    41    36   ar
    43    20    10    1
    44     9     5   ar
    45    20    14    1
    46    21    22    1
@<TRIPOS>MOLECULE
*****
 41 46 0 0 0
SMALL
GASTEIGER

@<TRIPOS>ATOM
      1 C          61.9338   93.6941   -0.3292 C.ar    1  UNL1        0.0658
      2 C          62.9049   93.4917   -1.4545 C.ar    1  UNL1        0.0160
      3 C          62.4804   93.7575   -2.8684 C.ar    1  UNL1        0.0037
      4 C          61.0850   94.2258   -3.1571 C.ar    1  UNL1        0.0173
      5 C          60.1139   94.4282   -2.0319 C.ar    1  UNL1        0.0616
      6 C          60.5383   94.1624   -0.6180 C.ar    1  UNL1        0.0319
      7 C          59.3701   94.4485    0.2783 C.ar    1  UNL1        0.0214
      8 C          58.2236   94.8912   -0.5818 C.ar    1  UNL1        0.0764
      9 N          58.6833   94.8786   -2.0095 N.ar    1  UNL1       -0.3196
     10 C          63.4515   93.5551   -3.9937 C.2     1  UNL1        0.0127
     11 C          63.6779   92.2759   -4.7435 C.2     1  UNL1        0.0616
     12 N          64.7329   92.5266   -5.7799 N.pl3   1  UNL1       -0.2954
     13 C          65.2683   91.5199   -6.7546 C.3     1  UNL1        0.1129
     14 C          65.1585   93.9608   -5.6705 C.3     1  UNL1        0.1750
     15 C          66.1650   94.7701   -6.4336 C.2     1  UNL1        0.2679
     16 O          66.9569   94.1344   -7.5375 O.2     1  UNL1       -0.2708
     17 N          66.3794   96.2151   -6.0926 N.am    1  UNL1       -0.1762
     18 C          65.5875   96.8507   -4.9887 C.2     1  UNL1        0.0884
     19 C          64.5810   96.0414   -4.2256 C.2     1  UNL1        0.0158
     20 C          64.3666   94.5964   -4.5666 C.2     1  UNL1        0.0071
     21 N          62.3583   93.4283    1.0847 N.pl3   1  UNL1       -0.2187
     22 H          61.8752   92.7636    1.6270 H       1  UNL1        0.1734
     23 S          63.5188   94.1751    1.6724 S.O2    1  UNL1        0.0539
     24 O          64.3139   92.9040    1.7178 O.2     1  UNL1       -0.1545
     25 O          62.7237   95.4462    1.6269 O.2     1  UNL1       -0.1545
     26 C          65.0500   96.2733    1.7248 C.3     1  UNL1        0.0292
     27 C          64.6793   94.9220    2.2600 C.3     1  UNL1        0.1724
     28 C          57.8574   95.2511   -3.2050 C.3     1  UNL1        0.1385
     29 C          58.3854   96.6533   -3.1329 C.3     1  UNL1        0.0350
     30 C          57.3294   93.8490   -3.2771 C.ar    1  UNL1        0.0828
     31 C          57.7663   92.9391   -4.3868 C.ar    1  UNL1        0.0169
     32 C          57.2383   91.5370   -4.4589 C.ar    1  UNL1        0.0029
     33 C          56.2735   91.0447   -3.4214 C.ar    1  UNL1        0.0207
     34 C          55.8365   91.9544   -2.3117 C.ar    1  UNL1        0.0985
     35 N          56.3645   93.3565   -2.2396 N.ar    1  UNL1       -0.2460
     36 C          57.0315   95.6236   -4.4005 C.ar    1  UNL1        0.0828
     37 C          55.5346   95.6359   -4.3036 C.ar    1  UNL1        0.0169
     38 C          54.7087   96.0084   -5.4989 C.ar    1  UNL1        0.0029
     39 C          55.3796   96.3686   -6.7913 C.ar    1  UNL1        0.0207
     40 C          56.8764   96.3563   -6.8882 C.ar    1  UNL1        0.0985
     41 N          57.7024   95.9838   -5.6927 N.ar    1  UNL1       -0.2460
@<TRIPOS>BOND
     1    26    27    1
     2    27    23    1
     3    23    24    2
     4    23    25    2
     5    23    21    1
     6    21     1    1
     7     1     2   ar
     8     2     3   ar
     9     3    10    1
    10    10    11    2
    11    11    12    1
    12    12    13    1
    13    12    14    1
    14    14    15    1
    15    15    16    2
    16    15    17    1
    17    17    18    2
    18    18    19    1
    19    19    20    2
    20     3     4   ar
    21     4     5   ar
    22     5     6   ar
    23     6     7   ar
    24     7     8   ar
    25     8     9   ar
    26     9    28    1
    27    28    29    1
    28    28    30    1
    29    30    31   ar
    30    31    32   ar
    31    32    33   ar
    32    33    34   ar
    33    34    35   ar
    34    28    36    1
    35    36    37   ar
    36    37    38   ar
    37    38    39   ar
    38    39    40   ar
    39    40    41   ar
    40     6     1   ar
    41    35    30   ar
    42    41    36   ar
    43    20    10    1
    44     9     5   ar
    45    20    14    1
    46    21    22    1
@<TRIPOS>MOLECULE
*****
 41 46 0 0 0
SMALL
GASTEIGER

@<TRIPOS>ATOM
      1 C          63.4961   87.7473   14.1614 C.ar    1  UNL1        0.0658
      2 C          62.7305   87.4282   12.9115 C.ar    1  UNL1        0.0160
      3 C          62.7815   88.3647   11.7410 C.ar    1  UNL1        0.0037
      4 C          63.5982   89.6204   11.8202 C.ar    1  UNL1        0.0173
      5 C          64.3638   89.9396   13.0700 C.ar    1  UNL1        0.0616
      6 C          64.3128   89.0030   14.2406 C.ar    1  UNL1        0.0319
      7 C          65.1658   89.5782   15.3321 C.ar    1  UNL1        0.0214
      8 C          65.7441   90.8704   14.8361 C.ar    1  UNL1        0.0764
      9 N          65.2484   91.0937   13.4380 N.ar    1  UNL1       -0.3196
     10 C          62.0158   88.0457   10.4912 C.2     1  UNL1        0.0127
     11 C          60.9544   88.9007    9.8649 C.2     1  UNL1        0.0616
     12 N          60.4599   88.1990    8.6348 N.pl3   1  UNL1       -0.2954
     13 C          59.3962   88.6983    7.7024 C.3     1  UNL1        0.1129
     14 C          61.2156   86.9102    8.5009 C.3     1  UNL1        0.1750
     15 C          61.1524   85.8107    7.4825 C.2     1  UNL1        0.2679
     16 O          60.1907   85.9055    6.3353 O.2     1  UNL1       -0.2708
     17 N          62.0509   84.6164    7.6114 N.am    1  UNL1       -0.1762
     18 C          63.0126   84.5217    8.7587 C.2     1  UNL1        0.0884
     19 C          63.0758   85.6212    9.7771 C.2     1  UNL1        0.0158
     20 C          62.1773   86.8155    9.6482 C.2     1  UNL1        0.0071
     21 N          63.4450   86.8106   15.3319 N.pl3   1  UNL1       -0.2187
     22 H          63.1731   87.1439   16.2175 H       1  UNL1        0.1734
     23 S          63.8083   85.3663   15.1532 S.O2    1  UNL1        0.0539
     24 O          65.2375   85.7551   14.9160 O.2     1  UNL1       -0.1545
     25 O          62.3791   84.9776   15.3904 O.2     1  UNL1       -0.1545
     26 C          64.1124   83.2968   13.6122 C.3     1  UNL1        0.0292
     27 C          64.1715   83.9220   14.9745 C.3     1  UNL1        0.1724
     28 C          65.5792   92.2654   12.5619 C.3     1  UNL1        0.1385
     29 C          64.3940   91.9535   11.6972 C.3     1  UNL1        0.0350
     30 C          66.7645   92.5773   13.4267 C.ar    1  UNL1        0.0828
     31 C          66.6055   93.4646   14.6257 C.ar    1  UNL1        0.0169
     32 C          67.7907   93.7765   15.4904 C.ar    1  UNL1        0.0029
     33 C          69.1350   93.2012   15.1563 C.ar    1  UNL1        0.0207
     34 C          69.2942   92.3139   13.9574 C.ar    1  UNL1        0.0985
     35 N          68.1089   92.0020   13.0926 N.ar    1  UNL1       -0.2460
     36 C          65.9101   93.4371   11.6858 C.ar    1  UNL1        0.0828
     37 C          66.2868   93.2177   10.2505 C.ar    1  UNL1        0.0169
     38 C          66.6176   94.3893    9.3743 C.ar    1  UNL1        0.0029
     39 C          66.5718   95.7805    9.9334 C.ar    1  UNL1        0.0207
     40 C          66.1952   95.9999   11.3687 C.ar    1  UNL1        0.0985
     41 N          65.8643   94.8282   12.2449 N.ar    1  UNL1       -0.2460
@<TRIPOS>BOND
     1    26    27    1
     2    27    23    1
     3    23    24    2
     4    23    25    2
     5    23    21    1
     6    21     1    1
     7     1     2   ar
     8     2     3   ar
     9     3    10    1
    10    10    11    2
    11    11    12    1
    12    12    13    1
    13    12    14    1
    14    14    15    1
    15    15    16    2
    16    15    17    1
    17    17    18    2
    18    18    19    1
    19    19    20    2
    20     3     4   ar
    21     4     5   ar
    22     5     6   ar
    23     6     7   ar
    24     7     8   ar
    25     8     9   ar
    26     9    28    1
    27    28    29    1
    28    28    30    1
    29    30    31   ar
    30    31    32   ar
    31    32    33   ar
    32    33    34   ar
    33    34    35   ar
    34    28    36    1
    35    36    37   ar
    36    37    38   ar
    37    38    39   ar
    38    39    40   ar
    39    40    41   ar
    40     6     1   ar
    41    35    30   ar
    42    41    36   ar
    43    20    10    1
    44     9     5   ar
    45    20    14    1
    46    21    22    1
