@<TRIPOS>MOLECULE
*****
 23 26 0 0 0
SMALL
GASTEIGER

@<TRIPOS>ATOM
      1 C          63.0108   85.4935   12.5461 C.ar    1  UNL1       -0.0003
      2 C          63.7127   86.2393   13.6420 C.ar    1  UNL1       -0.0003
      3 C          63.8311   87.7331   13.5760 C.ar    1  UNL1       -0.0043
      4 C          63.2476   88.4812   12.4141 C.ar    1  UNL1       -0.0224
      5 C          62.5458   87.7353   11.3182 C.ar    1  UNL1       -0.0258
      6 C          62.4274   86.2415   11.3841 C.ar    1  UNL1       -0.0046
      7 C          61.9623   88.4834   10.1562 C.3     1  UNL1        0.0261
      8 C          62.0807   89.9772   10.0903 C.3     1  UNL1        0.0053
      9 C          62.7826   90.7231   11.1862 C.3     1  UNL1        0.0091
     10 C          63.3660   89.9751   12.3482 C.3     1  UNL1        0.0444
     11 F          62.5372   79.5180   12.8097 F       1  UNL1       -0.2042
     12 C          62.6556   81.0118   12.7438 C.ar    1  UNL1        0.1401
     13 C          62.4120   81.8384   13.9716 C.ar    1  UNL1        0.0296
     14 C          62.5304   83.3323   13.9057 C.ar    1  UNL1        0.0023
     15 C          62.8924   83.9996   12.6120 C.ar    1  UNL1        0.0001
     16 C          63.1360   83.1730   11.3842 C.ar    1  UNL1        0.0023
     17 C          63.0176   81.6792   11.4501 C.ar    1  UNL1        0.0296
     18 C          64.0679   90.7209   13.4441 C.ar    1  UNL1       -0.0154
     19 C          63.5723   90.6206   14.8563 C.ar    1  UNL1        0.0167
     20 C          64.2742   91.3664   15.9523 C.ar    1  UNL1        0.0986
     21 N          65.4716   92.2126   15.6360 N.ar    1  UNL1       -0.2423
     22 C          65.9673   92.3129   14.2238 C.ar    1  UNL1        0.0986
     23 C          65.2654   91.5671   13.1279 C.ar    1  UNL1        0.0167
@<TRIPOS>BOND
     1    11    12    1
     2    12    13   ar
     3    13    14   ar
     4    14    15   ar
     5    15     1    1
     6     1     2   ar
     7     2     3   ar
     8     3     4   ar
     9     4     5   ar
    10     5     6   ar
    11     5     7    1
    12     7     8    1
    13     8     9    1
    14     9    10    1
    15    10    18    1
    16    18    19   ar
    17    19    20   ar
    18    20    21   ar
    19    21    22   ar
    20    22    23   ar
    21    15    16   ar
    22    16    17   ar
    23    17    12   ar
    24     6     1   ar
    25    23    18   ar
    26    10     4    1
@<TRIPOS>MOLECULE
*****
 23 26 0 0 0
SMALL
GASTEIGER

@<TRIPOS>ATOM
      1 C          62.9758   85.4675   12.5311 C.ar    1  UNL1       -0.0003
      2 C          63.6941   86.2243   13.6087 C.ar    1  UNL1       -0.0003
      3 C          63.8129   87.7172   13.5249 C.ar    1  UNL1       -0.0043
      4 C          63.2134   88.4533   12.3635 C.ar    1  UNL1       -0.0224
      5 C          62.4951   87.6965   11.2859 C.ar    1  UNL1       -0.0258
      6 C          62.3763   86.2036   11.3697 C.ar    1  UNL1       -0.0046
      7 C          61.8956   88.4326   10.1246 C.3     1  UNL1        0.0261
      8 C          62.0144   89.9255   10.0408 C.3     1  UNL1        0.0053
      9 C          62.7327   90.6824   11.1184 C.3     1  UNL1        0.0091
     10 C          63.3322   89.9463   12.2798 C.3     1  UNL1        0.0444
     11 F          62.5005   79.4957   12.8660 F       1  UNL1       -0.2042
     12 C          62.6193   80.9886   12.7823 C.ar    1  UNL1        0.1401
     13 C          62.9650   81.6414   11.4768 C.ar    1  UNL1        0.0296
     14 C          63.0838   83.1344   11.3930 C.ar    1  UNL1        0.0023
     15 C          62.8570   83.9745   12.6148 C.ar    1  UNL1        0.0001
     16 C          62.5113   83.3217   13.9203 C.ar    1  UNL1        0.0023
     17 C          62.3925   81.8288   14.0041 C.ar    1  UNL1        0.0296
     18 C          64.0505   90.7031   13.3574 C.ar    1  UNL1       -0.0154
     19 C          65.2444   91.5442   13.0149 C.ar    1  UNL1        0.0167
     20 C          65.9627   92.3010   14.0926 C.ar    1  UNL1        0.0986
     21 N          65.4871   92.2167   15.5127 N.ar    1  UNL1       -0.2423
     22 C          64.2932   91.3757   15.8552 C.ar    1  UNL1        0.0986
     23 C          63.5749   90.6189   14.7776 C.ar    1  UNL1        0.0167
@<TRIPOS>BOND
     1    11    12    1
     2    12    13   ar
     3    13    14   ar
     4    14    15   ar
     5    15     1    1
     6     1     2   ar
     7     2     3   ar
     8     3     4   ar
     9     4     5   ar
    10     5     6   ar
    11     5     7    1
    12     7     8    1
    13     8     9    1
    14     9    10    1
    15    10    18    1
    16    18    19   ar
    17    19    20   ar
    18    20    21   ar
    19    21    22   ar
    20    22    23   ar
    21    15    16   ar
    22    16    17   ar
    23    17    12   ar
    24     6     1   ar
    25    23    18   ar
    26    10     4    1
@<TRIPOS>MOLECULE
*****
 23 26 0 0 0
SMALL
GASTEIGER

@<TRIPOS>ATOM
      1 C          62.9019   90.2467   10.7863 C.ar    1  UNL1       -0.0003
      2 C          63.3893   91.3616    9.9092 C.ar    1  UNL1       -0.0003
      3 C          64.3924   92.3453   10.4345 C.ar    1  UNL1       -0.0043
      4 C          64.9081   92.2141   11.8370 C.ar    1  UNL1       -0.0224
      5 C          64.4207   91.0992   12.7141 C.ar    1  UNL1       -0.0258
      6 C          63.4176   90.1155   12.1888 C.ar    1  UNL1       -0.0046
      7 C          64.9364   90.9680   14.1165 C.3     1  UNL1        0.0261
      8 C          65.9395   91.9517   14.6419 C.3     1  UNL1        0.0053
      9 C          66.4270   93.0667   13.7648 C.3     1  UNL1        0.0091
     10 C          65.9113   93.1979   12.3623 C.3     1  UNL1        0.0444
     11 F          58.8894   86.3115    8.6851 F       1  UNL1       -0.2042
     12 C          59.8925   87.2953    9.2104 C.ar    1  UNL1        0.1401
     13 C          59.8790   88.7134    8.7219 C.ar    1  UNL1        0.0296
     14 C          60.8821   89.6972    9.2472 C.ar    1  UNL1        0.0023
     15 C          61.8987   89.2629   10.2610 C.ar    1  UNL1        0.0001
     16 C          61.9123   87.8447   10.7495 C.ar    1  UNL1        0.0023
     17 C          60.9092   86.8609   10.2242 C.ar    1  UNL1        0.0296
     18 C          66.3987   94.3128   11.4852 C.ar    1  UNL1       -0.0154
     19 C          67.1940   94.0036   10.2515 C.ar    1  UNL1        0.0167
     20 C          67.6814   95.1186    9.3744 C.ar    1  UNL1        0.0986
     21 N          67.3736   96.5427    9.7310 N.ar    1  UNL1       -0.2423
     22 C          66.5783   96.8519   10.9646 C.ar    1  UNL1        0.0986
     23 C          66.0909   95.7370   11.8417 C.ar    1  UNL1        0.0167
@<TRIPOS>BOND
     1    11    12    1
     2    12    13   ar
     3    13    14   ar
     4    14    15   ar
     5    15     1    1
     6     1     2   ar
     7     2     3   ar
     8     3     4   ar
     9     4     5   ar
    10     5     6   ar
    11     5     7    1
    12     7     8    1
    13     8     9    1
    14     9    10    1
    15    10    18    1
    16    18    19   ar
    17    19    20   ar
    18    20    21   ar
    19    21    22   ar
    20    22    23   ar
    21    15    16   ar
    22    16    17   ar
    23    17    12   ar
    24     6     1   ar
    25    23    18   ar
    26    10     4    1
@<TRIPOS>MOLECULE
*****
 23 26 0 0 0
SMALL
GASTEIGER

@<TRIPOS>ATOM
      1 C          62.6230   84.5876   12.5506 C.ar    1  UNL1       -0.0003
      2 C          63.3768   85.5026   13.4696 C.ar    1  UNL1       -0.0003
      3 C          63.4075   86.9778   13.1998 C.ar    1  UNL1       -0.0043
      4 C          62.6844   87.5380   12.0110 C.ar    1  UNL1       -0.0224
      5 C          61.9306   86.6231   11.0920 C.ar    1  UNL1       -0.0258
      6 C          61.8999   85.1479   11.3618 C.ar    1  UNL1       -0.0046
      7 C          61.2075   87.1833    9.9032 C.3     1  UNL1        0.0261
      8 C          61.2382   88.6585    9.6334 C.3     1  UNL1        0.0053
      9 C          61.9920   89.5735   10.5525 C.3     1  UNL1        0.0091
     10 C          62.7151   89.0133   11.7413 C.3     1  UNL1        0.0444
     11 F          62.5002   78.6867   13.6296 F       1  UNL1       -0.2042
     12 C          62.5309   80.1619   13.3598 C.ar    1  UNL1        0.1401
     13 C          63.3610   80.7011   12.2328 C.ar    1  UNL1        0.0296
     14 C          63.3917   82.1764   11.9631 C.ar    1  UNL1        0.0023
     15 C          62.5923   83.1124   12.8203 C.ar    1  UNL1        0.0001
     16 C          61.7622   82.5731   13.9473 C.ar    1  UNL1        0.0023
     17 C          61.7315   81.0979   14.2171 C.ar    1  UNL1        0.0296
     18 C          63.4688   89.9282   12.6603 C.ar    1  UNL1       -0.0154
     19 C          64.1564   91.1430   12.1111 C.ar    1  UNL1        0.0167
     20 C          64.9102   92.0579   13.0303 C.ar    1  UNL1        0.0986
     21 N          64.9764   91.7582   14.4985 N.ar    1  UNL1       -0.2423
     22 C          64.2887   90.5434   15.0477 C.ar    1  UNL1        0.0986
     23 C          63.5350   89.6285   14.1286 C.ar    1  UNL1        0.0167
@<TRIPOS>BOND
     1    11    12    1
     2    12    13   ar
     3    13    14   ar
     4    14    15   ar
     5    15     1    1
     6     1     2   ar
     7     2     3   ar
     8     3     4   ar
     9     4     5   ar
    10     5     6   ar
    11     5     7    1
    12     7     8    1
    13     8     9    1
    14     9    10    1
    15    10    18    1
    16    18    19   ar
    17    19    20   ar
    18    20    21   ar
    19    21    22   ar
    20    22    23   ar
    21    15    16   ar
    22    16    17   ar
    23    17    12   ar
    24     6     1   ar
    25    23    18   ar
    26    10     4    1
@<TRIPOS>MOLECULE
*****
 23 26 0 0 0
SMALL
GASTEIGER

@<TRIPOS>ATOM
      1 C          61.4238   87.2150   10.2487 C.ar    1  UNL1       -0.0003
      2 C          61.3125   85.7261   10.3926 C.ar    1  UNL1       -0.0003
      3 C          62.0214   85.0260   11.5139 C.ar    1  UNL1       -0.0043
      4 C          62.8415   85.8148   12.4912 C.ar    1  UNL1       -0.0224
      5 C          62.9528   87.3037   12.3473 C.ar    1  UNL1       -0.0258
      6 C          62.2439   88.0038   11.2260 C.ar    1  UNL1       -0.0046
      7 C          63.7729   88.0925   13.3246 C.3     1  UNL1        0.0261
      8 C          64.4818   87.3925   14.4459 C.3     1  UNL1        0.0053
      9 C          64.3706   85.9035   14.5899 C.3     1  UNL1        0.0091
     10 C          63.5504   85.1147   13.6126 C.3     1  UNL1        0.0444
     11 F          58.5883   90.0157    5.7635 F       1  UNL1       -0.2042
     12 C          59.2971   89.3155    6.8847 C.ar    1  UNL1        0.1401
     13 C          59.2972   87.8170    6.9523 C.ar    1  UNL1        0.0296
     14 C          60.0061   87.1169    8.0737 C.ar    1  UNL1        0.0023
     15 C          60.7149   87.9152    9.1273 C.ar    1  UNL1        0.0001
     16 C          60.7148   89.4136    9.0597 C.ar    1  UNL1        0.0023
     17 C          60.0060   90.1138    7.9385 C.ar    1  UNL1        0.0296
     18 C          63.4392   83.6258   13.7565 C.ar    1  UNL1       -0.0154
     19 C          64.4785   82.7334   13.1452 C.ar    1  UNL1        0.0167
     20 C          64.3672   81.2445   13.2892 C.ar    1  UNL1        0.0986
     21 N          63.2167   80.6479   14.0445 N.ar    1  UNL1       -0.2423
     22 C          62.1774   81.5403   14.6557 C.ar    1  UNL1        0.0986
     23 C          62.2886   83.0291   14.5118 C.ar    1  UNL1        0.0167
@<TRIPOS>BOND
     1    11    12    1
     2    12    13   ar
     3    13    14   ar
     4    14    15   ar
     5    15     1    1
     6     1     2   ar
     7     2     3   ar
     8     3     4   ar
     9     4     5   ar
    10     5     6   ar
    11     5     7    1
    12     7     8    1
    13     8     9    1
    14     9    10    1
    15    10    18    1
    16    18    19   ar
    17    19    20   ar
    18    20    21   ar
    19    21    22   ar
    20    22    23   ar
    21    15    16   ar
    22    16    17   ar
    23    17    12   ar
    24     6     1   ar
    25    23    18   ar
    26    10     4    1
@<TRIPOS>MOLECULE
*****
 23 26 0 0 0
SMALL
GASTEIGER

@<TRIPOS>ATOM
      1 C          61.2200   86.8584    9.5325 C.ar    1  UNL1       -0.0003
      2 C          61.1482   87.1427   11.0036 C.ar    1  UNL1       -0.0003
      3 C          61.9220   86.2956   11.9698 C.ar    1  UNL1       -0.0043
      4 C          62.7675   85.1641   11.4650 C.ar    1  UNL1       -0.0224
      5 C          62.8393   84.8798    9.9939 C.ar    1  UNL1       -0.0258
      6 C          62.0656   85.7269    9.0277 C.ar    1  UNL1       -0.0046
      7 C          63.6848   83.7483    9.4891 C.3     1  UNL1        0.0261
      8 C          64.4585   82.9011   10.4553 C.3     1  UNL1        0.0053
      9 C          64.3868   83.1854   11.9265 C.3     1  UNL1        0.0091
     10 C          63.5412   84.3169   12.4313 C.3     1  UNL1        0.0444
     11 F          58.1251   90.2471    5.6675 F       1  UNL1       -0.2042
     12 C          58.8988   89.3999    6.6337 C.ar    1  UNL1        0.1401
     13 C          58.7477   87.9078    6.6107 C.ar    1  UNL1        0.0296
     14 C          59.5215   87.0606    7.5770 C.ar    1  UNL1        0.0023
     15 C          60.4463   87.7056    8.5662 C.ar    1  UNL1        0.0001
     16 C          60.5974   89.1978    8.5892 C.ar    1  UNL1        0.0023
     17 C          59.8237   90.0450    7.6230 C.ar    1  UNL1        0.0296
     18 C          63.4694   84.6012   13.9023 C.ar    1  UNL1       -0.0154
     19 C          62.4908   83.8585   14.7629 C.ar    1  UNL1        0.0167
     20 C          62.4190   84.1429   16.2340 C.ar    1  UNL1        0.0986
     21 N          63.3259   85.1699   16.8444 N.ar    1  UNL1       -0.2423
     22 C          64.3045   85.9127   15.9839 C.ar    1  UNL1        0.0986
     23 C          64.3763   85.6283   14.5128 C.ar    1  UNL1        0.0167
@<TRIPOS>BOND
     1    11    12    1
     2    12    13   ar
     3    13    14   ar
     4    14    15   ar
     5    15     1    1
     6     1     2   ar
     7     2     3   ar
     8     3     4   ar
     9     4     5   ar
    10     5     6   ar
    11     5     7    1
    12     7     8    1
    13     8     9    1
    14     9    10    1
    15    10    18    1
    16    18    19   ar
    17    19    20   ar
    18    20    21   ar
    19    21    22   ar
    20    22    23   ar
    21    15    16   ar
    22    16    17   ar
    23    17    12   ar
    24     6     1   ar
    25    23    18   ar
    26    10     4    1
