@<TRIPOS>MOLECULE
*****
 41 45 0 0 0
SMALL
GASTEIGER

@<TRIPOS>ATOM
      1 C          61.9986   89.4447    9.9746 C.ar    1  UNL1        0.0549
      2 C          60.5754   89.8019    9.6634 C.ar    1  UNL1        0.0043
      3 C          59.6433   88.7614    9.1169 C.ar    1  UNL1       -0.0029
      4 C          60.1344   87.3638    8.8817 C.ar    1  UNL1       -0.0084
      5 C          59.2023   86.3234    8.3352 C.3     1  UNL1        0.0323
      6 C          61.5576   87.0066    9.1929 C.ar    1  UNL1        0.0466
      7 C          62.4897   88.0470    9.7394 C.ar    1  UNL1        0.0189
      8 N          63.5749   90.2855   11.8609 N.am    1  UNL1       -0.2803
      9 C          62.9307   90.4851   10.5211 C.2     1  UNL1        0.2495
     10 O          63.2186   91.7252    9.7278 O.2     1  UNL1       -0.2698
     11 H          63.3860   89.4716   12.3816 H       1  UNL1        0.1552
     12 C          65.8940   93.4985   12.0812 C.ar    1  UNL1        0.0667
     13 C          64.9619   92.4581   11.5347 C.ar    1  UNL1        0.0322
     14 C          64.5071   91.3260   12.4074 C.ar    1  UNL1        0.0519
     15 C          64.9843   91.2344   13.8265 C.ar    1  UNL1        0.0186
     16 C          65.9164   92.2748   14.3730 C.ar    1  UNL1        0.0741
     17 C          66.3713   93.4069   13.5003 C.ar    1  UNL1        0.0215
     18 C          67.7053   96.2369    7.9458 C.3     1  UNL1        0.0538
     19 C          67.1815   95.8893    9.3077 C.ar    1  UNL1        0.0786
     20 C          66.8308   94.5139    9.7928 C.ar    1  UNL1        0.0962
     21 N          66.3490   94.6306   11.2086 N.ar    1  UNL1       -0.2867
     22 C          66.4019   96.0781   11.5984 C.ar    1  UNL1        0.1825
     23 N          66.9165   96.8560   10.4237 N.ar    1  UNL1       -0.2280
     24 C          66.3936   92.1832   15.7921 C.3     1  UNL1        0.4187
     25 F          66.8708   92.0916   17.2112 F       1  UNL1       -0.1659
     26 F          64.9733   92.2265   16.2725 F       1  UNL1       -0.1659
     27 F          67.8139   92.1399   15.3116 F       1  UNL1       -0.1659
     28 N          62.0487   85.6089    8.9577 N.pl3   1  UNL1       -0.2828
     29 H          61.8790   85.1662    8.0949 H       1  UNL1        0.1551
     30 C          62.7984   84.8858   10.0370 C.ar    1  UNL1        0.2207
     31 N          63.6701   83.7154    9.6898 N.ar    1  UNL1       -0.2120
     32 C          64.4198   82.9923   10.7691 C.ar    1  UNL1        0.1034
     33 C          64.2977   83.4394   12.1958 C.ar    1  UNL1        0.0400
     34 C          63.4260   84.6097   12.5430 C.ar    1  UNL1        0.0872
     35 N          62.6764   85.3328   11.4636 N.ar    1  UNL1       -0.2135
     36 C          63.3040   85.0568   13.9696 C.ar    1  UNL1        0.0370
     37 C          64.1659   86.1722   14.4823 C.ar    1  UNL1        0.0046
     38 C          64.0438   86.6193   15.9090 C.ar    1  UNL1        0.0207
     39 C          63.0599   85.9509   16.8228 C.ar    1  UNL1        0.0989
     40 N          62.1981   84.8354   16.3101 N.ar    1  UNL1       -0.2423
     41 C          62.3201   84.3884   14.8835 C.ar    1  UNL1        0.1003
@<TRIPOS>BOND
     1    18    19    1
     2    19    20   ar
     3    20    21   ar
     4    21    12    1
     5    12    13   ar
     6    13    14   ar
     7    14     8    1
     8     8     9   am
     9     9    10    2
    10     9     1    1
    11     1     2   ar
    12     2     3   ar
    13     3     4   ar
    14     4     5    1
    15     4     6   ar
    16     6    28    1
    17    28    30    1
    18    30    31   ar
    19    31    32   ar
    20    32    33   ar
    21    33    34   ar
    22    34    36    1
    23    36    37   ar
    24    37    38   ar
    25    38    39   ar
    26    39    40   ar
    27    40    41   ar
    28    34    35   ar
    29     6     7   ar
    30    14    15   ar
    31    15    16   ar
    32    16    24    1
    33    24    25    1
    34    24    26    1
    35    24    27    1
    36    16    17   ar
    37    21    22   ar
    38    22    23   ar
    39    23    19   ar
    40    17    12   ar
    41     7     1   ar
    42    35    30   ar
    43    41    36   ar
    44     8    11    1
    45    28    29    1
@<TRIPOS>MOLECULE
*****
 41 45 0 0 0
SMALL
GASTEIGER

@<TRIPOS>ATOM
      1 C          62.0719   89.4555   10.1706 C.ar    1  UNL1        0.0549
      2 C          60.7047   89.9332    9.7798 C.ar    1  UNL1        0.0043
      3 C          59.7439   88.9934    9.1136 C.ar    1  UNL1       -0.0029
      4 C          60.1503   87.5760    8.8382 C.ar    1  UNL1       -0.0084
      5 C          59.1896   86.6363    8.1720 C.3     1  UNL1        0.0323
      6 C          61.5175   87.0984    9.2290 C.ar    1  UNL1        0.0466
      7 C          62.4782   88.0381    9.8952 C.ar    1  UNL1        0.0189
      8 N          63.7838   91.4039   10.0193 N.am    1  UNL1       -0.2803
      9 C          63.0326   90.3952   10.8368 C.2     1  UNL1        0.2495
     10 O          63.2422   90.3263   12.3205 O.2     1  UNL1       -0.2698
     11 H          63.6462   91.4492    9.0455 H       1  UNL1        0.1552
     12 C          66.1422   93.0323   12.7646 C.ar    1  UNL1        0.0667
     13 C          65.1814   92.0926   12.0984 C.ar    1  UNL1        0.0322
     14 C          64.7446   92.3437   10.6856 C.ar    1  UNL1        0.0519
     15 C          65.2685   93.5345    9.9390 C.ar    1  UNL1        0.0186
     16 C          66.2293   94.4742   10.6052 C.ar    1  UNL1        0.0741
     17 C          66.6661   94.2231   12.0180 C.ar    1  UNL1        0.0215
     18 C          69.1467   92.0240   16.9880 C.3     1  UNL1        0.0538
     19 C          67.9601   92.3178   16.1187 C.ar    1  UNL1        0.0786
     20 C          67.9826   92.5089   14.6312 C.ar    1  UNL1        0.0962
     21 N          66.5790   92.7812   14.1775 N.ar    1  UNL1       -0.2867
     22 C          65.6890   92.7584   15.3847 C.ar    1  UNL1        0.1825
     23 N          66.5426   92.4719   16.5845 N.ar    1  UNL1       -0.2280
     24 C          66.7532   95.6650    9.8585 C.3     1  UNL1        0.4187
     25 F          67.2771   96.8558    9.1119 F       1  UNL1       -0.1659
     26 F          65.5762   96.4723   10.3201 F       1  UNL1       -0.1659
     27 F          67.9302   94.8578    9.3970 F       1  UNL1       -0.1659
     28 N          61.9239   85.6810    8.9536 N.pl3   1  UNL1       -0.2828
     29 H          61.6845   85.2578    8.0976 H       1  UNL1        0.1551
     30 C          62.6951   84.9085    9.9825 C.ar    1  UNL1        0.2207
     31 N          63.5534   83.7517    9.5640 N.ar    1  UNL1       -0.2120
     32 C          64.3246   82.9792   10.5928 C.ar    1  UNL1        0.1034
     33 C          64.2374   83.3635   12.0402 C.ar    1  UNL1        0.0400
     34 C          63.3792   84.5203   12.4586 C.ar    1  UNL1        0.0872
     35 N          62.6080   85.2928   11.4298 N.ar    1  UNL1       -0.2135
     36 C          63.2921   84.9046   13.9059 C.ar    1  UNL1        0.0370
     37 C          64.2702   85.8854   14.4816 C.ar    1  UNL1        0.0046
     38 C          64.1831   86.2697   15.9290 C.ar    1  UNL1        0.0207
     39 C          63.1179   85.6732   16.8006 C.ar    1  UNL1        0.0989
     40 N          62.1398   84.6925   16.2248 N.ar    1  UNL1       -0.2423
     41 C          62.2269   84.3082   14.7775 C.ar    1  UNL1        0.1003
@<TRIPOS>BOND
     1    18    19    1
     2    19    20   ar
     3    20    21   ar
     4    21    12    1
     5    12    13   ar
     6    13    14   ar
     7    14     8    1
     8     8     9   am
     9     9    10    2
    10     9     1    1
    11     1     2   ar
    12     2     3   ar
    13     3     4   ar
    14     4     5    1
    15     4     6   ar
    16     6    28    1
    17    28    30    1
    18    30    31   ar
    19    31    32   ar
    20    32    33   ar
    21    33    34   ar
    22    34    36    1
    23    36    37   ar
    24    37    38   ar
    25    38    39   ar
    26    39    40   ar
    27    40    41   ar
    28    34    35   ar
    29     6     7   ar
    30    14    15   ar
    31    15    16   ar
    32    16    24    1
    33    24    25    1
    34    24    26    1
    35    24    27    1
    36    16    17   ar
    37    21    22   ar
    38    22    23   ar
    39    23    19   ar
    40    17    12   ar
    41     7     1   ar
    42    35    30   ar
    43    41    36   ar
    44     8    11    1
    45    28    29    1
@<TRIPOS>MOLECULE
*****
 41 45 0 0 0
SMALL
GASTEIGER

@<TRIPOS>ATOM
      1 C          63.9970   89.7191   14.4094 C.ar    1  UNL1        0.0549
      2 C          63.3711   89.8432   15.7670 C.ar    1  UNL1        0.0043
      3 C          63.8130   90.9317   16.6998 C.ar    1  UNL1       -0.0029
      4 C          64.8806   91.8959   16.2752 C.ar    1  UNL1       -0.0084
      5 C          65.3224   92.9842   17.2080 C.3     1  UNL1        0.0323
      6 C          65.5064   91.7718   14.9176 C.ar    1  UNL1        0.0466
      7 C          65.0647   90.6834   13.9848 C.ar    1  UNL1        0.0189
      8 N          62.7767   88.9723   12.2407 N.am    1  UNL1       -0.2803
      9 C          63.5552   88.6308   13.4766 C.2     1  UNL1        0.2495
     10 O          63.8919   87.2007   13.7795 O.2     1  UNL1       -0.2698
     11 H          62.5558   89.9109   12.0419 H       1  UNL1        0.1552
     12 C          62.3764   85.3904   10.5797 C.ar    1  UNL1        0.0667
     13 C          62.8182   86.4787   11.5125 C.ar    1  UNL1        0.0322
     14 C          62.3349   87.8839   11.3078 C.ar    1  UNL1        0.0519
     15 C          61.4099   88.2007   10.1703 C.ar    1  UNL1        0.0186
     16 C          60.9682   87.1124    9.2375 C.ar    1  UNL1        0.0741
     17 C          61.4514   85.7072    9.4421 C.ar    1  UNL1        0.0215
     18 C          62.9504   80.5078   12.5064 C.3     1  UNL1        0.0538
     19 C          63.1234   81.7408   11.6700 C.ar    1  UNL1        0.0786
     20 C          62.3674   83.0267   11.8280 C.ar    1  UNL1        0.0962
     21 N          62.8596   83.9851   10.7843 N.ar    1  UNL1       -0.2867
     22 C          63.9198   83.2916    9.9813 C.ar    1  UNL1        0.1825
     23 N          64.0829   81.9046   10.5286 N.ar    1  UNL1       -0.2280
     24 C          60.0431   87.4292    8.0999 C.3     1  UNL1        0.4187
     25 F          59.1181   87.7460    6.9624 F       1  UNL1       -0.1659
     26 F          59.9185   85.9660    7.7938 F       1  UNL1       -0.1659
     27 F          60.1678   88.8923    8.4061 F       1  UNL1       -0.1659
     28 N          66.5741   92.7360   14.4929 N.pl3   1  UNL1       -0.2828
     29 H          66.9573   93.3651   15.1461 H       1  UNL1        0.1551
     30 C          67.0579   92.7417   13.0731 C.ar    1  UNL1        0.2207
     31 N          68.0601   91.7225   12.6181 N.ar    1  UNL1       -0.2120
     32 C          68.5439   91.7282   11.1983 C.ar    1  UNL1        0.1034
     33 C          68.0254   92.7531   10.2335 C.ar    1  UNL1        0.0400
     34 C          67.0233   93.7723   10.6884 C.ar    1  UNL1        0.0872
     35 N          66.5395   93.7665   12.1083 N.ar    1  UNL1       -0.2135
     36 C          66.5050   94.7971    9.7236 C.ar    1  UNL1        0.0370
     37 C          67.1078   94.9111    8.3548 C.ar    1  UNL1        0.0046
     38 C          66.5894   95.9361    7.3900 C.ar    1  UNL1        0.0207
     39 C          65.4682   96.8469    7.7939 C.ar    1  UNL1        0.0989
     40 N          64.8653   96.7328    9.1627 N.ar    1  UNL1       -0.2423
     41 C          65.3836   95.7080   10.1275 C.ar    1  UNL1        0.1003
@<TRIPOS>BOND
     1    18    19    1
     2    19    20   ar
     3    20    21   ar
     4    21    12    1
     5    12    13   ar
     6    13    14   ar
     7    14     8    1
     8     8     9   am
     9     9    10    2
    10     9     1    1
    11     1     2   ar
    12     2     3   ar
    13     3     4   ar
    14     4     5    1
    15     4     6   ar
    16     6    28    1
    17    28    30    1
    18    30    31   ar
    19    31    32   ar
    20    32    33   ar
    21    33    34   ar
    22    34    36    1
    23    36    37   ar
    24    37    38   ar
    25    38    39   ar
    26    39    40   ar
    27    40    41   ar
    28    34    35   ar
    29     6     7   ar
    30    14    15   ar
    31    15    16   ar
    32    16    24    1
    33    24    25    1
    34    24    26    1
    35    24    27    1
    36    16    17   ar
    37    21    22   ar
    38    22    23   ar
    39    23    19   ar
    40    17    12   ar
    41     7     1   ar
    42    35    30   ar
    43    41    36   ar
    44     8    11    1
    45    28    29    1
@<TRIPOS>MOLECULE
*****
 41 45 0 0 0
SMALL
GASTEIGER

@<TRIPOS>ATOM
      1 C          63.9962   89.4095   14.5517 C.ar    1  UNL1        0.0549
      2 C          63.2993   89.5029   15.8767 C.ar    1  UNL1        0.0043
      3 C          63.5896   90.6510   16.7975 C.ar    1  UNL1       -0.0029
      4 C          64.5766   91.7056   16.3932 C.ar    1  UNL1       -0.0084
      5 C          64.8668   92.8536   17.3139 C.3     1  UNL1        0.0323
      6 C          65.2735   91.6122   15.0682 C.ar    1  UNL1        0.0466
      7 C          64.9833   90.4641   14.1475 C.ar    1  UNL1        0.0189
      8 N          63.6891   86.8591   14.1630 N.am    1  UNL1       -0.2803
      9 C          63.7060   88.2615   13.6310 C.2     1  UNL1        0.2495
     10 O          63.4326   88.5158   12.1782 O.2     1  UNL1       -0.2698
     11 H          63.8685   86.6921   15.1166 H       1  UNL1        0.1552
     12 C          62.6799   84.8250   10.9082 C.ar    1  UNL1        0.0667
     13 C          62.9701   85.9730   11.8289 C.ar    1  UNL1        0.0322
     14 C          63.3989   85.7110   13.2422 C.ar    1  UNL1        0.0519
     15 C          63.5374   84.3010   13.7348 C.ar    1  UNL1        0.0186
     16 C          63.2472   83.1530   12.8141 C.ar    1  UNL1        0.0741
     17 C          62.8184   83.4150   11.4008 C.ar    1  UNL1        0.0215
     18 C          62.2277   84.5080    5.6569 C.3     1  UNL1        0.0538
     19 C          62.0432   84.9412    7.0811 C.ar    1  UNL1        0.0786
     20 C          62.7304   84.3530    8.2776 C.ar    1  UNL1        0.0962
     21 N          62.2510   85.0870    9.4948 N.ar    1  UNL1       -0.2867
     22 C          61.2676   86.1288    9.0506 C.ar    1  UNL1        0.1825
     23 N          61.1392   86.0388    7.5588 N.ar    1  UNL1       -0.2280
     24 C          63.3858   81.7430   13.3067 C.3     1  UNL1        0.4187
     25 F          63.5244   80.3329   13.7992 F       1  UNL1       -0.1659
     26 F          61.9742   81.4577   12.8872 F       1  UNL1       -0.1659
     27 F          64.7975   82.0282   13.7261 F       1  UNL1       -0.1659
     28 N          66.2606   92.6667   14.6639 N.pl3   1  UNL1       -0.2828
     29 H          66.5461   93.3488   15.3139 H       1  UNL1        0.1551
     30 C          66.8126   92.6822   13.2692 C.ar    1  UNL1        0.2207
     31 N          67.8263   91.6580   12.8525 N.ar    1  UNL1       -0.2120
     32 C          68.3784   91.6734   11.4579 C.ar    1  UNL1        0.1034
     33 C          67.9167   92.7130   10.4800 C.ar    1  UNL1        0.0400
     34 C          66.9031   93.7371   10.8967 C.ar    1  UNL1        0.0872
     35 N          66.3510   93.7216   12.2913 N.ar    1  UNL1       -0.2135
     36 C          66.4414   94.7765    9.9188 C.ar    1  UNL1        0.0370
     37 C          65.3744   95.7548   10.3119 C.ar    1  UNL1        0.0046
     38 C          64.9128   96.7943    9.3339 C.ar    1  UNL1        0.0207
     39 C          65.5182   96.8556    7.9629 C.ar    1  UNL1        0.0989
     40 N          66.5853   95.8774    7.5699 N.ar    1  UNL1       -0.2423
     41 C          67.0469   94.8379    8.5477 C.ar    1  UNL1        0.1003
@<TRIPOS>BOND
     1    18    19    1
     2    19    20   ar
     3    20    21   ar
     4    21    12    1
     5    12    13   ar
     6    13    14   ar
     7    14     8    1
     8     8     9   am
     9     9    10    2
    10     9     1    1
    11     1     2   ar
    12     2     3   ar
    13     3     4   ar
    14     4     5    1
    15     4     6   ar
    16     6    28    1
    17    28    30    1
    18    30    31   ar
    19    31    32   ar
    20    32    33   ar
    21    33    34   ar
    22    34    36    1
    23    36    37   ar
    24    37    38   ar
    25    38    39   ar
    26    39    40   ar
    27    40    41   ar
    28    34    35   ar
    29     6     7   ar
    30    14    15   ar
    31    15    16   ar
    32    16    24    1
    33    24    25    1
    34    24    26    1
    35    24    27    1
    36    16    17   ar
    37    21    22   ar
    38    22    23   ar
    39    23    19   ar
    40    17    12   ar
    41     7     1   ar
    42    35    30   ar
    43    41    36   ar
    44     8    11    1
    45    28    29    1
@<TRIPOS>MOLECULE
*****
 41 45 0 0 0
SMALL
GASTEIGER

@<TRIPOS>ATOM
      1 C          63.9276   88.2811   15.6296 C.ar    1  UNL1        0.0549
      2 C          62.9205   88.1092   16.7279 C.ar    1  UNL1        0.0043
      3 C          62.3184   86.7603   16.9890 C.ar    1  UNL1       -0.0029
      4 C          62.7234   85.5834   16.1519 C.ar    1  UNL1       -0.0084
      5 C          62.1214   84.2347   16.4131 C.3     1  UNL1        0.0323
      6 C          63.7306   85.7553   15.0537 C.ar    1  UNL1        0.0466
      7 C          64.3326   87.1041   14.7925 C.ar    1  UNL1        0.0189
      8 N          65.8137   89.7422   14.6012 N.am    1  UNL1       -0.2803
      9 C          64.5297   89.6299   15.3684 C.2     1  UNL1        0.2495
     10 O          63.8477   90.8664   15.8745 O.2     1  UNL1       -0.2698
     11 H          66.2613   88.9307   14.2691 H       1  UNL1        0.1552
     12 C          66.6968   93.1715   12.8095 C.ar    1  UNL1        0.0667
     13 C          66.0947   91.8227   13.0706 C.ar    1  UNL1        0.0322
     14 C          66.4158   91.0911   14.3401 C.ar    1  UNL1        0.0519
     15 C          67.3390   91.7083   15.3485 C.ar    1  UNL1        0.0186
     16 C          67.9410   93.0571   15.0874 C.ar    1  UNL1        0.0741
     17 C          67.6199   93.7887   13.8179 C.ar    1  UNL1        0.0215
     18 C          64.9989   96.8541    9.4277 C.3     1  UNL1        0.0538
     19 C          65.5953   95.5959    9.9856 C.ar    1  UNL1        0.0786
     20 C          65.7237   95.2503   11.4395 C.ar    1  UNL1        0.0962
     21 N          66.3757   93.9032   11.5400 N.ar    1  UNL1       -0.2867
     22 C          66.6502   93.4161   10.1481 C.ar    1  UNL1        0.1825
     23 N          66.1679   94.4623    9.1874 N.ar    1  UNL1       -0.2280
     24 C          68.8642   93.6743   16.0958 C.3     1  UNL1        0.4187
     25 F          69.7873   94.2915   17.1042 F       1  UNL1       -0.1659
     26 F          69.2839   92.3072   16.5483 F       1  UNL1       -0.1659
     27 F          68.4444   95.0414   15.6433 F       1  UNL1       -0.1659
     28 N          64.1356   84.5784   14.2166 N.pl3   1  UNL1       -0.2828
     29 H          64.6402   83.8365   14.6218 H       1  UNL1        0.1551
     30 C          63.7719   84.5319   12.7621 C.ar    1  UNL1        0.2207
     31 N          64.2560   83.4009   11.9037 N.ar    1  UNL1       -0.2120
     32 C          63.8923   83.3544   10.4492 C.ar    1  UNL1        0.1034
     33 C          63.0446   84.4388    9.8531 C.ar    1  UNL1        0.0400
     34 C          62.5606   85.5697   10.7114 C.ar    1  UNL1        0.0872
     35 N          62.9243   85.6163   12.1659 N.ar    1  UNL1       -0.2135
     36 C          61.7129   86.6541   10.1152 C.ar    1  UNL1        0.0370
     37 C          60.6571   86.3115    9.1062 C.ar    1  UNL1        0.0046
     38 C          59.8094   87.3960    8.5100 C.ar    1  UNL1        0.0207
     39 C          60.0175   88.8230    8.9228 C.ar    1  UNL1        0.0989
     40 N          61.0733   89.1656    9.9317 N.ar    1  UNL1       -0.2423
     41 C          61.9210   88.0812   10.5279 C.ar    1  UNL1        0.1003
@<TRIPOS>BOND
     1    18    19    1
     2    19    20   ar
     3    20    21   ar
     4    21    12    1
     5    12    13   ar
     6    13    14   ar
     7    14     8    1
     8     8     9   am
     9     9    10    2
    10     9     1    1
    11     1     2   ar
    12     2     3   ar
    13     3     4   ar
    14     4     5    1
    15     4     6   ar
    16     6    28    1
    17    28    30    1
    18    30    31   ar
    19    31    32   ar
    20    32    33   ar
    21    33    34   ar
    22    34    36    1
    23    36    37   ar
    24    37    38   ar
    25    38    39   ar
    26    39    40   ar
    27    40    41   ar
    28    34    35   ar
    29     6     7   ar
    30    14    15   ar
    31    15    16   ar
    32    16    24    1
    33    24    25    1
    34    24    26    1
    35    24    27    1
    36    16    17   ar
    37    21    22   ar
    38    22    23   ar
    39    23    19   ar
    40    17    12   ar
    41     7     1   ar
    42    35    30   ar
    43    41    36   ar
    44     8    11    1
    45    28    29    1
