@<TRIPOS>MOLECULE
*****
 31 34 0 0 0
SMALL
GASTEIGER

@<TRIPOS>ATOM
      1 C          63.5751   90.7301   11.6821 C.ar    1  UNL1        0.1534
      2 C          62.6165   90.7744   10.5292 C.ar    1  UNL1        0.0351
      3 C          61.7502   89.5875   10.2281 C.ar    1  UNL1        0.0722
      4 CL         60.7916   89.6318    9.0752 Cl      1  UNL1       -0.0809
      5 C          61.8426   88.3562   11.0798 C.ar    1  UNL1        0.0577
      6 C          62.8012   88.3119   12.2327 C.ar    1  UNL1        0.0462
      7 C          63.6675   89.4988   12.5339 C.ar    1  UNL1        0.1602
      8 F          64.6261   89.4546   13.6867 F       1  UNL1       -0.2027
      9 O          63.9610   91.9071   13.4042 O.2     1  UNL1       -0.1498
     10 S          64.4414   91.9171   11.9832 S.O2    1  UNL1        0.0772
     11 O          64.9217   91.9271   10.5623 O.2     1  UNL1       -0.1498
     12 N          65.3076   93.1041   12.2844 N.pl3   1  UNL1       -0.1936
     13 H          65.1981   93.9366   11.7703 H       1  UNL1        0.1758
     14 C          66.3408   93.0228   13.3688 C.ar    1  UNL1        0.1786
     15 N          66.4499   93.9370   14.5530 N.ar    1  UNL1       -0.2214
     16 C          67.6229   93.4921   15.3754 C.ar    1  UNL1        0.1079
     17 C          68.2387   92.3030   14.6994 C.ar    1  UNL1        0.0588
     18 S          67.4463   92.0130   13.4593 S.2     1  UNL1       -0.0497
     19 N          60.9764   87.1692   10.7787 N.pl3   1  UNL1       -0.3319
     20 H          60.0460   87.1448   11.0996 H       1  UNL1        0.1468
     21 C          61.5277   86.0195    9.9887 C.3     1  UNL1        0.0871
     22 C          62.4503   85.0339   10.6427 C.3     1  UNL1        0.0244
     23 C          63.3631   84.1898    9.8035 C.3     1  UNL1        0.0020
     24 C          64.2855   83.2043   10.4575 C.3     1  UNL1        0.0051
     25 C          64.2951   83.0628   11.9508 C.3     1  UNL1        0.0562
     26 C          63.3823   83.9069   12.7900 C.3     1  UNL1        0.1872
     27 C          62.4599   84.8924   12.1360 C.3     1  UNL1        0.0579
     28 O          62.5307   84.6783   13.7542 O.3     1  UNL1       -0.3316
     29 C          62.8674   84.2173   15.1414 C.3     1  UNL1        0.1767
     30 C          63.9269   83.1610   15.0345 C.3     1  UNL1        0.1767
     31 O          64.2452   82.9691   13.5812 O.3     1  UNL1       -0.3316
@<TRIPOS>BOND
     1     9    10    2
     2    10    11    2
     3    10    12    1
     4    12    14    1
     5    14    15   ar
     6    15    16   ar
     7    16    17   ar
     8    17    18   ar
     9    10     1    1
    10     1     2   ar
    11     2     3   ar
    12     3     4    1
    13     3     5   ar
    14     5    19    1
    15    19    21    1
    16    21    22    1
    17    22    23    1
    18    23    24    1
    19    24    25    1
    20    25    26    1
    21    26    27    1
    22    26    28    1
    23    28    29    1
    24    29    30    1
    25    30    31    1
    26     5     6   ar
    27     6     7   ar
    28     7     8    1
    29    18    14   ar
    30     7     1   ar
    31    27    22    1
    32    31    26    1
    33    12    13    1
    34    19    20    1
@<TRIPOS>MOLECULE
*****
 31 34 0 0 0
SMALL
GASTEIGER

@<TRIPOS>ATOM
      1 C          63.6928   90.9039   11.7327 C.ar    1  UNL1        0.1534
      2 C          62.7075   90.9117   10.6017 C.ar    1  UNL1        0.0351
      3 C          61.8007   89.7360   10.3888 C.ar    1  UNL1        0.0722
      4 CL         60.8155   89.7438    9.2578 Cl      1  UNL1       -0.0809
      5 C          61.8792   88.5524   11.3069 C.ar    1  UNL1        0.0577
      6 C          62.8645   88.5446   12.4379 C.ar    1  UNL1        0.0462
      7 C          63.7713   89.7203   12.6509 C.ar    1  UNL1        0.1602
      8 F          64.7565   89.7124   13.7819 F       1  UNL1       -0.2027
      9 O          64.8827   92.1278   10.4734 O.2     1  UNL1       -0.1498
     10 S          64.5996   92.0796   11.9456 S.O2    1  UNL1        0.0772
     11 O          64.3165   92.0315   13.4178 O.2     1  UNL1       -0.1498
     12 N          65.5064   93.2554   12.1585 N.pl3   1  UNL1       -0.1936
     13 H          65.5014   93.7313   13.0203 H       1  UNL1        0.1758
     14 C          66.4209   93.7062   11.0582 C.ar    1  UNL1        0.1786
     15 N          67.5643   92.9223   10.4854 N.ar    1  UNL1       -0.2214
     16 C          68.2025   93.7516    9.4107 C.ar    1  UNL1        0.1079
     17 C          67.4535   95.0481    9.3194 C.ar    1  UNL1        0.0588
     18 S          66.3524   95.0200   10.3376 S.2     1  UNL1       -0.0497
     19 N          60.9724   87.3767   11.0941 N.pl3   1  UNL1       -0.3319
     20 H          60.0819   87.3596   11.5134 H       1  UNL1        0.1468
     21 C          61.4225   86.2270   10.2422 C.3     1  UNL1        0.0871
     22 C          62.3684   85.2051   10.8003 C.3     1  UNL1        0.0244
     23 C          63.2299   84.3968    9.8760 C.3     1  UNL1        0.0020
     24 C          64.1757   83.3750   10.4341 C.3     1  UNL1        0.0051
     25 C          64.2599   83.1616   11.9165 C.3     1  UNL1        0.0562
     26 C          63.3983   83.9700   12.8407 C.3     1  UNL1        0.1872
     27 C          62.4526   84.9917   12.2826 C.3     1  UNL1        0.0579
     28 O          62.6036   84.6993   13.8830 O.3     1  UNL1       -0.3316
     29 C          63.0062   84.1698   15.2275 C.3     1  UNL1        0.1767
     30 C          64.0497   83.1132   15.0161 C.3     1  UNL1        0.1767
     31 O          64.2921   82.9897   13.5409 O.3     1  UNL1       -0.3316
@<TRIPOS>BOND
     1     9    10    2
     2    10    11    2
     3    10    12    1
     4    12    14    1
     5    14    15   ar
     6    15    16   ar
     7    16    17   ar
     8    17    18   ar
     9    10     1    1
    10     1     2   ar
    11     2     3   ar
    12     3     4    1
    13     3     5   ar
    14     5    19    1
    15    19    21    1
    16    21    22    1
    17    22    23    1
    18    23    24    1
    19    24    25    1
    20    25    26    1
    21    26    27    1
    22    26    28    1
    23    28    29    1
    24    29    30    1
    25    30    31    1
    26     5     6   ar
    27     6     7   ar
    28     7     8    1
    29    18    14   ar
    30     7     1   ar
    31    27    22    1
    32    31    26    1
    33    12    13    1
    34    19    20    1
@<TRIPOS>MOLECULE
*****
 31 34 0 0 0
SMALL
GASTEIGER

@<TRIPOS>ATOM
      1 C          64.8170   91.7108   11.9709 C.ar    1  UNL1        0.1534
      2 C          64.8366   90.7403   13.1145 C.ar    1  UNL1        0.0351
      3 C          63.8257   89.6339   13.1767 C.ar    1  UNL1        0.0722
      4 CL         63.8453   88.6635   14.3203 Cl      1  UNL1       -0.0809
      5 C          62.7951   89.4980   12.0953 C.ar    1  UNL1        0.0577
      6 C          62.7755   90.4684   10.9517 C.ar    1  UNL1        0.0462
      7 C          63.7864   91.5748   10.8894 C.ar    1  UNL1        0.1602
      8 F          63.7668   92.5453    9.7458 F       1  UNL1       -0.2027
      9 O          65.4112   93.2747   13.2751 O.2     1  UNL1       -0.1498
     10 S          65.8279   92.8172   11.9087 S.O2    1  UNL1        0.0772
     11 O          66.2447   92.3597   10.5424 O.2     1  UNL1       -0.1498
     12 N          66.8389   93.9236   11.8466 N.pl3   1  UNL1       -0.1936
     13 H          67.5280   94.0006   12.5455 H       1  UNL1        0.1758
     14 C          66.7999   94.9127   10.7195 C.ar    1  UNL1        0.1786
     15 N          67.8125   95.0367    9.6199 N.ar    1  UNL1       -0.2214
     16 C          67.3799   96.1521    8.7151 C.ar    1  UNL1        0.1079
     17 C          66.0999   96.7175    9.2555 C.ar    1  UNL1        0.0588
     18 S          65.7415   95.9515   10.4944 S.2     1  UNL1       -0.0497
     19 N          61.7842   88.3916   12.1574 N.pl3   1  UNL1       -0.3319
     20 H          61.3876   88.1351   13.0213 H       1  UNL1        0.1468
     21 C          61.3775   87.6760   10.9035 C.3     1  UNL1        0.0871
     22 C          62.0955   86.4267   10.4863 C.3     1  UNL1        0.0244
     23 C          62.4538   86.2130    9.0455 C.3     1  UNL1        0.0020
     24 C          63.1717   84.9638    8.6285 C.3     1  UNL1        0.0051
     25 C          63.5313   83.9281    9.6523 C.3     1  UNL1        0.0562
     26 C          63.1730   84.1418   11.0931 C.3     1  UNL1        0.1872
     27 C          62.4551   85.3910   11.5101 C.3     1  UNL1        0.0579
     28 O          62.8817   84.2163   12.5626 O.3     1  UNL1       -0.3316
     29 C          63.4157   82.9704   13.2048 C.3     1  UNL1        0.1767
     30 C          64.0371   82.1258   12.1322 C.3     1  UNL1        0.1767
     31 O          63.8870   82.8497   10.8270 O.3     1  UNL1       -0.3316
@<TRIPOS>BOND
     1     9    10    2
     2    10    11    2
     3    10    12    1
     4    12    14    1
     5    14    15   ar
     6    15    16   ar
     7    16    17   ar
     8    17    18   ar
     9    10     1    1
    10     1     2   ar
    11     2     3   ar
    12     3     4    1
    13     3     5   ar
    14     5    19    1
    15    19    21    1
    16    21    22    1
    17    22    23    1
    18    23    24    1
    19    24    25    1
    20    25    26    1
    21    26    27    1
    22    26    28    1
    23    28    29    1
    24    29    30    1
    25    30    31    1
    26     5     6   ar
    27     6     7   ar
    28     7     8    1
    29    18    14   ar
    30     7     1   ar
    31    27    22    1
    32    31    26    1
    33    12    13    1
    34    19    20    1
@<TRIPOS>MOLECULE
*****
 31 34 0 0 0
SMALL
GASTEIGER

@<TRIPOS>ATOM
      1 C          63.2444   85.7623   13.0966 C.ar    1  UNL1        0.1534
      2 C          62.4841   85.7707   11.8036 C.ar    1  UNL1        0.0351
      3 C          62.2805   87.0583   11.0616 C.ar    1  UNL1        0.0722
      4 CL         61.5202   87.0667    9.7686 Cl      1  UNL1       -0.0809
      5 C          62.8372   88.3375   11.6126 C.ar    1  UNL1        0.0577
      6 C          63.5976   88.3291   12.9056 C.ar    1  UNL1        0.0462
      7 C          63.8012   87.0415   13.6476 C.ar    1  UNL1        0.1602
      8 F          64.5615   87.0331   14.9406 F       1  UNL1       -0.2027
      9 O          62.3769   84.8667   14.8127 O.2     1  UNL1       -0.1498
     10 S          63.4480   84.4747   13.8386 S.O2    1  UNL1        0.0772
     11 O          64.5192   84.0826   12.8645 O.2     1  UNL1       -0.1498
     12 N          63.6516   83.1870   14.5806 N.pl3   1  UNL1       -0.1936
     13 H          64.3138   83.1370   15.3074 H       1  UNL1        0.1758
     14 C          62.8461   81.9754   14.2153 C.ar    1  UNL1        0.1786
     15 N          61.4050   81.7388   14.5573 N.ar    1  UNL1       -0.2214
     16 C          61.0087   80.4049   13.9972 C.ar    1  UNL1        0.1079
     17 C          62.2049   79.8172   13.3089 C.ar    1  UNL1        0.0588
     18 S          63.3405   80.7879   13.4437 S.2     1  UNL1       -0.0497
     19 N          62.6337   89.6251   10.8706 N.pl3   1  UNL1       -0.3319
     20 H          62.4479   89.6122    9.9039 H       1  UNL1        0.1468
     21 C          62.7131   90.9326   11.6016 C.3     1  UNL1        0.0871
     22 C          64.0291   91.6408   11.7312 C.3     1  UNL1        0.0244
     23 C          64.7421   92.1290   10.5052 C.3     1  UNL1        0.0020
     24 C          66.0580   92.8371   10.6350 C.3     1  UNL1        0.0051
     25 C          66.6609   93.0570   11.9908 C.3     1  UNL1        0.0562
     26 C          65.9479   92.5688   13.2168 C.3     1  UNL1        0.1872
     27 C          64.6319   91.8607   13.0870 C.3     1  UNL1        0.0579
     28 O          65.3545   92.1393   14.5258 O.3     1  UNL1       -0.3316
     29 C          66.2899   92.5619   15.6196 C.3     1  UNL1        0.1767
     30 C          67.4613   93.2527   14.9866 C.3     1  UNL1        0.1767
     31 O          67.2500   93.2569   13.5016 O.3     1  UNL1       -0.3316
@<TRIPOS>BOND
     1     9    10    2
     2    10    11    2
     3    10    12    1
     4    12    14    1
     5    14    15   ar
     6    15    16   ar
     7    16    17   ar
     8    17    18   ar
     9    10     1    1
    10     1     2   ar
    11     2     3   ar
    12     3     4    1
    13     3     5   ar
    14     5    19    1
    15    19    21    1
    16    21    22    1
    17    22    23    1
    18    23    24    1
    19    24    25    1
    20    25    26    1
    21    26    27    1
    22    26    28    1
    23    28    29    1
    24    29    30    1
    25    30    31    1
    26     5     6   ar
    27     6     7   ar
    28     7     8    1
    29    18    14   ar
    30     7     1   ar
    31    27    22    1
    32    31    26    1
    33    12    13    1
    34    19    20    1
@<TRIPOS>MOLECULE
*****
 31 34 0 0 0
SMALL
GASTEIGER

@<TRIPOS>ATOM
      1 C          62.3392   89.7510   12.0055 C.ar    1  UNL1        0.1534
      2 C          62.8248   89.7599   13.4246 C.ar    1  UNL1        0.0351
      3 C          63.9282   90.6899   13.8340 C.ar    1  UNL1        0.0722
      4 CL         64.4138   90.6988   15.2532 Cl      1  UNL1       -0.0809
      5 C          64.5459   91.6111   12.8241 C.ar    1  UNL1        0.0577
      6 C          64.0602   91.6022   11.4050 C.ar    1  UNL1        0.0462
      7 C          62.9569   90.6722   10.9956 C.ar    1  UNL1        0.1602
      8 F          62.4712   90.6633    9.5764 F       1  UNL1       -0.2027
      9 O          62.1930   87.6667   11.6387 O.2     1  UNL1       -0.1498
     10 S          61.2358   88.8209   11.5962 S.O2    1  UNL1        0.0772
     11 O          60.2786   89.9750   11.5536 O.2     1  UNL1       -0.1498
     12 N          60.1324   87.8907   11.1869 N.pl3   1  UNL1       -0.1936
     13 H          59.4517   87.6158   11.8428 H       1  UNL1        0.1758
     14 C          60.0662   87.3796    9.7782 C.ar    1  UNL1        0.1786
     15 N          60.6539   86.0931    9.2785 N.ar    1  UNL1       -0.2214
     16 C          60.3516   85.9837    7.8134 C.ar    1  UNL1        0.1079
     17 C          59.5772   87.2025    7.4075 C.ar    1  UNL1        0.0588
     18 S          59.4008   88.0652    8.6219 S.2     1  UNL1       -0.0497
     19 N          65.6492   92.5412   13.2334 N.pl3   1  UNL1       -0.3319
     20 H          65.4668   93.2730   13.8662 H       1  UNL1        0.1468
     21 C          67.0305   92.3563   12.6785 C.3     1  UNL1        0.0871
     22 C          67.3546   92.8404   11.2962 C.3     1  UNL1        0.0244
     23 C          68.1588   91.9783   10.3689 C.3     1  UNL1        0.0020
     24 C          68.4828   92.4625    8.9866 C.3     1  UNL1        0.0051
     25 C          68.0026   93.8088    8.5318 C.3     1  UNL1        0.0562
     26 C          67.1984   94.6709    9.4591 C.3     1  UNL1        0.1872
     27 C          66.8743   94.1867   10.8414 C.3     1  UNL1        0.0579
     28 O          66.3891   95.6387   10.2706 O.3     1  UNL1       -0.3316
     29 C          66.1337   96.8517    9.4258 C.3     1  UNL1        0.1767
     30 C          66.7851   96.6335    8.0924 C.3     1  UNL1        0.1767
     31 O          67.4431   95.2857    8.1130 O.3     1  UNL1       -0.3316
@<TRIPOS>BOND
     1     9    10    2
     2    10    11    2
     3    10    12    1
     4    12    14    1
     5    14    15   ar
     6    15    16   ar
     7    16    17   ar
     8    17    18   ar
     9    10     1    1
    10     1     2   ar
    11     2     3   ar
    12     3     4    1
    13     3     5   ar
    14     5    19    1
    15    19    21    1
    16    21    22    1
    17    22    23    1
    18    23    24    1
    19    24    25    1
    20    25    26    1
    21    26    27    1
    22    26    28    1
    23    28    29    1
    24    29    30    1
    25    30    31    1
    26     5     6   ar
    27     6     7   ar
    28     7     8    1
    29    18    14   ar
    30     7     1   ar
    31    27    22    1
    32    31    26    1
    33    12    13    1
    34    19    20    1
@<TRIPOS>MOLECULE
*****
 31 34 0 0 0
SMALL
GASTEIGER

@<TRIPOS>ATOM
      1 C          63.7502   86.3932   15.5232 C.ar    1  UNL1        0.1534
      2 C          63.9995   87.2106   14.2904 C.ar    1  UNL1        0.0351
      3 C          63.8615   88.7034   14.3396 C.ar    1  UNL1        0.0722
      4 CL         64.1109   89.5208   13.1069 Cl      1  UNL1       -0.0809
      5 C          63.4742   89.3788   15.6218 C.ar    1  UNL1        0.0577
      6 C          63.2249   88.5614   16.8545 C.ar    1  UNL1        0.0462
      7 C          63.3629   87.0686   16.8053 C.ar    1  UNL1        0.1602
      8 F          63.1136   86.2513   18.0380 F       1  UNL1       -0.2027
      9 O          62.4448   84.7544   15.8546 O.2     1  UNL1       -0.1498
     10 S          63.8882   84.9004   15.4738 S.O2    1  UNL1        0.0772
     11 O          65.3317   85.0464   15.0931 O.2     1  UNL1       -0.1498
     12 N          64.0263   83.4075   15.4245 N.pl3   1  UNL1       -0.1936
     13 H          64.4815   82.9308   16.1557 H       1  UNL1        0.1758
     14 C          63.4707   82.6410   14.2609 C.ar    1  UNL1        0.1786
     15 N          63.0538   81.2001   14.2725 N.ar    1  UNL1       -0.2214
     16 C          62.5600   80.8495   12.9003 C.ar    1  UNL1        0.1079
     17 C          62.6716   82.0736   12.0406 C.ar    1  UNL1        0.0588
     18 S          63.2345   83.1809   12.8815 S.2     1  UNL1       -0.0497
     19 N          63.3362   90.8716   15.6711 N.pl3   1  UNL1       -0.3319
     20 H          62.4803   91.2950   15.4314 H       1  UNL1        0.1468
     21 C          64.5022   91.7193   16.0856 C.3     1  UNL1        0.0871
     22 C          65.6532   91.9231   15.1455 C.3     1  UNL1        0.0244
     23 C          67.0615   91.8449   15.6559 C.3     1  UNL1        0.0020
     24 C          68.2124   92.0487   14.7157 C.3     1  UNL1        0.0051
     25 C          67.9549   92.3307   13.2651 C.3     1  UNL1        0.0562
     26 C          66.5466   92.4089   12.7547 C.3     1  UNL1        0.1872
     27 C          65.3958   92.2051   13.6949 C.3     1  UNL1        0.0579
     28 O          65.2000   92.5159   12.1028 O.3     1  UNL1       -0.3316
     29 C          65.4118   92.8065   10.6465 C.3     1  UNL1        0.1767
     30 C          66.8894   92.8790   10.3984 C.3     1  UNL1        0.1767
     31 O          67.5907   92.6333   11.7013 O.3     1  UNL1       -0.3316
@<TRIPOS>BOND
     1     9    10    2
     2    10    11    2
     3    10    12    1
     4    12    14    1
     5    14    15   ar
     6    15    16   ar
     7    16    17   ar
     8    17    18   ar
     9    10     1    1
    10     1     2   ar
    11     2     3   ar
    12     3     4    1
    13     3     5   ar
    14     5    19    1
    15    19    21    1
    16    21    22    1
    17    22    23    1
    18    23    24    1
    19    24    25    1
    20    25    26    1
    21    26    27    1
    22    26    28    1
    23    28    29    1
    24    29    30    1
    25    30    31    1
    26     5     6   ar
    27     6     7   ar
    28     7     8    1
    29    18    14   ar
    30     7     1   ar
    31    27    22    1
    32    31    26    1
    33    12    13    1
    34    19    20    1
@<TRIPOS>MOLECULE
*****
 31 34 0 0 0
SMALL
GASTEIGER

@<TRIPOS>ATOM
      1 C          64.8253   91.7685   11.8813 C.ar    1  UNL1        0.1534
      2 C          63.8410   91.4803   10.7868 C.ar    1  UNL1        0.0351
      3 C          62.9386   90.2861   10.8849 C.ar    1  UNL1        0.0722
      4 CL         61.9543   89.9979    9.7903 Cl      1  UNL1       -0.0809
      5 C          63.0205   89.3803   12.0776 C.ar    1  UNL1        0.0577
      6 C          64.0047   89.6685   13.1722 C.ar    1  UNL1        0.0462
      7 C          64.9072   90.8626   13.0741 C.ar    1  UNL1        0.1602
      8 F          65.8914   91.1509   14.1687 F       1  UNL1       -0.2027
      9 O          65.3985   93.3279   13.2003 O.2     1  UNL1       -0.1498
     10 S          65.7277   92.9627   11.7832 S.O2    1  UNL1        0.0772
     11 O          66.0569   92.5975   10.3661 O.2     1  UNL1       -0.1498
     12 N          66.6301   94.1569   11.6850 N.pl3   1  UNL1       -0.1936
     13 H          67.3125   94.3164   12.3765 H       1  UNL1        0.1758
     14 C          66.4928   95.1081   10.5333 C.ar    1  UNL1        0.1786
     15 N          65.3612   96.0676   10.3123 N.ar    1  UNL1       -0.2214
     16 C          65.6320   96.8192    9.0428 C.ar    1  UNL1        0.1079
     17 C          66.9310   96.3242    8.4791 C.ar    1  UNL1        0.0588
     18 S          67.4630   95.2667    9.4003 S.2     1  UNL1       -0.0497
     19 N          62.1181   88.1861   12.1758 N.pl3   1  UNL1       -0.3319
     20 H          61.2147   88.2816   12.5553 H       1  UNL1        0.1468
     21 C          62.5921   86.8464   11.6959 C.3     1  UNL1        0.0871
     22 C          63.0954   85.8321   12.6798 C.3     1  UNL1        0.0244
     23 C          63.8879   86.2745   13.8741 C.3     1  UNL1        0.0020
     24 C          64.3911   85.2602   14.8579 C.3     1  UNL1        0.0051
     25 C          64.1018   83.8035   14.6475 C.3     1  UNL1        0.0562
     26 C          63.3094   83.3611   13.4532 C.3     1  UNL1        0.1872
     27 C          62.8062   84.3754   12.4694 C.3     1  UNL1        0.0579
     28 O          62.5342   82.7719   12.3122 O.3     1  UNL1       -0.3316
     29 C          62.4903   81.2845   12.5007 C.3     1  UNL1        0.1767
     30 C          63.2384   80.9543   13.7582 C.3     1  UNL1        0.1767
     31 O          63.7446   82.2377   14.3469 O.3     1  UNL1       -0.3316
@<TRIPOS>BOND
     1     9    10    2
     2    10    11    2
     3    10    12    1
     4    12    14    1
     5    14    15   ar
     6    15    16   ar
     7    16    17   ar
     8    17    18   ar
     9    10     1    1
    10     1     2   ar
    11     2     3   ar
    12     3     4    1
    13     3     5   ar
    14     5    19    1
    15    19    21    1
    16    21    22    1
    17    22    23    1
    18    23    24    1
    19    24    25    1
    20    25    26    1
    21    26    27    1
    22    26    28    1
    23    28    29    1
    24    29    30    1
    25    30    31    1
    26     5     6   ar
    27     6     7   ar
    28     7     8    1
    29    18    14   ar
    30     7     1   ar
    31    27    22    1
    32    31    26    1
    33    12    13    1
    34    19    20    1
@<TRIPOS>MOLECULE
*****
 31 34 0 0 0
SMALL
GASTEIGER

@<TRIPOS>ATOM
      1 C          64.1420   90.7884   12.2335 C.ar    1  UNL1        0.1534
      2 C          64.2253   89.5541   13.0817 C.ar    1  UNL1        0.0351
      3 C          63.3891   88.3551   12.7455 C.ar    1  UNL1        0.0722
      4 CL         63.4725   87.1208   13.5937 Cl      1  UNL1       -0.0809
      5 C          62.4696   88.3904   11.5609 C.ar    1  UNL1        0.0577
      6 C          62.3862   89.6247   10.7127 C.ar    1  UNL1        0.0462
      7 C          63.2224   90.8237   11.0489 C.ar    1  UNL1        0.1602
      8 F          63.1391   92.0581   10.2007 F       1  UNL1       -0.2027
      9 O          65.5108   92.0092   11.1677 O.2     1  UNL1       -0.1498
     10 S          64.9782   91.9874   12.5698 S.O2    1  UNL1        0.0772
     11 O          64.4458   91.9656   13.9719 O.2     1  UNL1       -0.1498
     12 N          65.8146   93.1864   12.9061 N.pl3   1  UNL1       -0.1936
     13 H          65.5865   94.0670   12.5295 H       1  UNL1        0.1758
     14 C          66.9983   93.0438   13.8162 C.ar    1  UNL1        0.1786
     15 N          68.2424   92.2569   13.5279 N.ar    1  UNL1       -0.2214
     16 C          69.1588   92.3898   14.7079 C.ar    1  UNL1        0.1079
     17 C          68.4811   93.2588   15.7256 C.ar    1  UNL1        0.0588
     18 S          67.1458   93.6630   15.1745 S.2     1  UNL1       -0.0497
     19 N          61.6333   87.1914   11.2246 N.pl3   1  UNL1       -0.3319
     20 H          60.7849   87.0344   11.6987 H       1  UNL1        0.1468
     21 C          62.0897   86.2318   10.1660 C.3     1  UNL1        0.0871
     22 C          62.7395   84.9374   10.5566 C.3     1  UNL1        0.0244
     23 C          63.5905   84.1970    9.5679 C.3     1  UNL1        0.0020
     24 C          64.2402   82.9027    9.9586 C.3     1  UNL1        0.0051
     25 C          64.0390   82.3489   11.3380 C.3     1  UNL1        0.0562
     26 C          63.1880   83.0894   12.3267 C.3     1  UNL1        0.1872
     27 C          62.5383   84.3836   11.9360 C.3     1  UNL1        0.0579
     28 O          62.3688   83.7143   13.4169 O.3     1  UNL1       -0.3316
     29 C          62.4452   82.8245   14.6221 C.3     1  UNL1        0.1767
     30 C          63.3117   81.6497   14.2768 C.3     1  UNL1        0.1767
     31 O          63.7707   81.8134   12.8582 O.3     1  UNL1       -0.3316
@<TRIPOS>BOND
     1     9    10    2
     2    10    11    2
     3    10    12    1
     4    12    14    1
     5    14    15   ar
     6    15    16   ar
     7    16    17   ar
     8    17    18   ar
     9    10     1    1
    10     1     2   ar
    11     2     3   ar
    12     3     4    1
    13     3     5   ar
    14     5    19    1
    15    19    21    1
    16    21    22    1
    17    22    23    1
    18    23    24    1
    19    24    25    1
    20    25    26    1
    21    26    27    1
    22    26    28    1
    23    28    29    1
    24    29    30    1
    25    30    31    1
    26     5     6   ar
    27     6     7   ar
    28     7     8    1
    29    18    14   ar
    30     7     1   ar
    31    27    22    1
    32    31    26    1
    33    12    13    1
    34    19    20    1
@<TRIPOS>MOLECULE
*****
 31 34 0 0 0
SMALL
GASTEIGER

@<TRIPOS>ATOM
      1 C          63.2724   84.8459   15.2810 C.ar    1  UNL1        0.1534
      2 C          62.9180   85.5126   16.5772 C.ar    1  UNL1        0.0351
      3 C          63.1651   86.9810   16.7574 C.ar    1  UNL1        0.0722
      4 CL         62.8107   87.6477   18.0536 Cl      1  UNL1       -0.0809
      5 C          63.7666   87.7828   15.6415 C.ar    1  UNL1        0.0577
      6 C          64.1210   87.1161   14.3454 C.ar    1  UNL1        0.0462
      7 C          63.8739   85.6477   14.1651 C.ar    1  UNL1        0.1602
      8 F          64.2283   84.9810   12.8690 F       1  UNL1       -0.2027
      9 O          64.4541   83.0931   15.4580 O.2     1  UNL1       -0.1498
     10 S          63.0253   83.3774   15.1008 S.O2    1  UNL1        0.0772
     11 O          61.5965   83.6616   14.7437 O.2     1  UNL1       -0.1498
     12 N          62.7782   81.9088   14.9207 N.pl3   1  UNL1       -0.1936
     13 H          62.5890   81.3419   15.7030 H       1  UNL1        0.1758
     14 C          62.8193   81.3042   13.5485 C.ar    1  UNL1        0.1786
     15 N          63.2476   82.0003   12.2908 N.ar    1  UNL1       -0.2214
     16 C          63.1323   81.0236   11.1582 C.ar    1  UNL1        0.1079
     17 C          62.6327   79.7238   11.7160 C.ar    1  UNL1        0.0588
     18 S          62.4393   79.8973   13.1933 S.2     1  UNL1       -0.0497
     19 N          64.0138   89.2513   15.8217 N.pl3   1  UNL1       -0.3319
     20 H          64.3478   89.5922   16.6827 H       1  UNL1        0.1468
     21 C          63.7519   90.2003   14.6900 C.3     1  UNL1        0.0871
     22 C          64.7276   91.3000   14.3922 C.3     1  UNL1        0.0244
     23 C          65.5460   91.8967   15.4986 C.3     1  UNL1        0.0020
     24 C          66.5216   92.9964   15.2007 C.3     1  UNL1        0.0051
     25 C          66.6790   93.4994   13.7963 C.3     1  UNL1        0.0562
     26 C          65.8606   92.9027   12.6899 C.3     1  UNL1        0.1872
     27 C          64.8850   91.8030   12.9878 C.3     1  UNL1        0.0579
     28 O          65.1152   92.4060   11.4867 O.3     1  UNL1       -0.3316
     29 C          65.5849   93.1870   10.2954 C.3     1  UNL1        0.1767
     30 C          66.6207   94.1664   10.7622 C.3     1  UNL1        0.1767
     31 O          66.7911   93.9907   12.2421 O.3     1  UNL1       -0.3316
@<TRIPOS>BOND
     1     9    10    2
     2    10    11    2
     3    10    12    1
     4    12    14    1
     5    14    15   ar
     6    15    16   ar
     7    16    17   ar
     8    17    18   ar
     9    10     1    1
    10     1     2   ar
    11     2     3   ar
    12     3     4    1
    13     3     5   ar
    14     5    19    1
    15    19    21    1
    16    21    22    1
    17    22    23    1
    18    23    24    1
    19    24    25    1
    20    25    26    1
    21    26    27    1
    22    26    28    1
    23    28    29    1
    24    29    30    1
    25    30    31    1
    26     5     6   ar
    27     6     7   ar
    28     7     8    1
    29    18    14   ar
    30     7     1   ar
    31    27    22    1
    32    31    26    1
    33    12    13    1
    34    19    20    1
