@<TRIPOS>MOLECULE
*****
 34 38 0 0 0
SMALL
GASTEIGER

@<TRIPOS>ATOM
      1 N          62.5358   90.4144   11.1614 N.ar    1  UNL1       -0.2937
      2 C          61.8446   91.3130   10.1791 C.ar    1  UNL1        0.1798
      3 N          60.9835   90.4593    9.2962 N.ar    1  UNL1       -0.2195
      4 C          61.1424   89.0330    9.7328 C.ar    1  UNL1        0.1483
      5 C          60.5375   87.7560    9.2296 C.ar    1  UNL1        0.1516
      6 N          60.8920   86.4512    9.8791 N.ar    1  UNL1       -0.2031
      7 C          61.8514   86.4234   11.0319 C.ar    1  UNL1        0.2094
      8 N          62.4563   87.7006   11.5351 N.ar    1  UNL1       -0.2003
      9 C          62.1018   89.0053   10.8855 C.ar    1  UNL1        0.1678
     10 C          65.3925   91.8522   13.3608 C.3     1  UNL1        0.0977
     11 C          66.0283   92.4177   12.1255 C.3     1  UNL1        0.0136
     12 C          64.7459   91.6464   12.0230 C.3     1  UNL1        0.0344
     13 C          63.4929   90.8487   12.2316 C.3     1  UNL1        0.1180
     14 C          63.3649   90.5615   13.6983 C.3     1  UNL1        0.1582
     15 O          62.2574   89.7896   14.3523 O.3     1  UNL1       -0.3800
     16 C          64.5390   91.1817   14.3962 C.3     1  UNL1        0.1471
     17 O          64.8116   91.1389   15.8705 O.3     1  UNL1       -0.3814
     18 H          62.4129   89.7487   15.3088 H       1  UNL1        0.2105
     19 H          64.1064   90.6433   16.3155 H       1  UNL1        0.2105
     20 C          68.6353   91.9816   15.6450 C.3     1  UNL1        0.1107
     21 N          67.5942   91.4796   14.6888 N.am    1  UNL1       -0.3026
     22 C          66.4336   92.3541   14.3170 C.2     1  UNL1        0.2240
     23 O          66.3140   93.7305   14.9012 O.2     1  UNL1       -0.2750
     24 H          67.6726   90.5763   14.3053 H       1  UNL1        0.1495
     25 N          59.5782   87.7837    8.0768 N.pl3   1  UNL1       -0.3153
     26 C          59.0176   86.5015    7.5366 C.3     1  UNL1        0.1097
     27 H          59.3164   88.6434    7.6748 H       1  UNL1        0.1483
     28 C          62.2058   85.1187   11.6814 C.1     1  UNL1       -0.0180
     29 C          62.5603   83.8140   12.3310 C.1     1  UNL1       -0.0196
     30 C          62.9148   82.5091   12.9805 C.ar    1  UNL1        0.1874
     31 C          61.9936   81.3412   13.1732 C.ar    1  UNL1        0.0494
     32 C          62.7622   80.2534   13.8632 C.ar    1  UNL1        0.0445
     33 C          64.1585   80.7492   14.0970 C.ar    1  UNL1        0.1806
     34 O          64.2528   82.1433   13.5515 O.2     1  UNL1       -0.4423
@<TRIPOS>BOND
     1    20    21    1
     2    21    22   am
     3    22    23    2
     4    10    22    1
     5    10    11    1
     6    12    11    1
     7    12    13    1
     8    13     1    1
     9     1     2   ar
    10     2     3   ar
    11     3     4   ar
    12     4     5   ar
    13     5    25    1
    14    25    26    1
    15     5     6   ar
    16     6     7   ar
    17     7    28    1
    18    28    29    3
    19    29    30    1
    20    30    31   ar
    21    31    32   ar
    22    32    33   ar
    23    33    34   ar
    24     7     8   ar
    25     8     9   ar
    26    13    14    1
    27    14    15    1
    28    14    16    1
    29    16    17    1
    30    12    10    1
    31     9     1   ar
    32    16    10    1
    33     9     4   ar
    34    34    30   ar
    35    21    24    1
    36    25    27    1
    37    15    18    1
    38    17    19    1
@<TRIPOS>MOLECULE
*****
 34 38 0 0 0
SMALL
GASTEIGER

@<TRIPOS>ATOM
      1 N          62.6010   90.4167   11.0092 N.ar    1  UNL1       -0.2937
      2 C          61.8200   91.2507   10.0373 C.ar    1  UNL1        0.1798
      3 N          60.8848   90.3430    9.2946 N.ar    1  UNL1       -0.2195
      4 C          61.0878   88.9481    9.8075 C.ar    1  UNL1        0.1483
      5 C          60.4439   87.6424    9.4465 C.ar    1  UNL1        0.1516
      6 N          60.8606   86.3821   10.1452 N.ar    1  UNL1       -0.2031
      7 C          61.9213   86.4276   11.2048 C.ar    1  UNL1        0.2094
      8 N          62.5652   87.7335   11.5658 N.ar    1  UNL1       -0.2003
      9 C          62.1485   88.9937   10.8672 C.ar    1  UNL1        0.1678
     10 C          65.0202   91.2109   13.9386 C.3     1  UNL1        0.0977
     11 C          64.3234   90.1717   14.7660 C.3     1  UNL1        0.0136
     12 C          63.8711   90.4390   13.3610 C.3     1  UNL1        0.0344
     13 C          63.6503   90.9178   11.9568 C.3     1  UNL1        0.1180
     14 C          64.6629   91.9857   11.6665 C.3     1  UNL1        0.1582
     15 O          64.8040   92.7399   10.3776 O.3     1  UNL1       -0.3800
     16 C          65.5096   92.1668   12.8914 C.3     1  UNL1        0.1471
     17 O          66.6461   93.1340   13.0424 O.3     1  UNL1       -0.3814
     18 H          65.5350   93.3731   10.4519 H       1  UNL1        0.2105
     19 H          66.7564   93.6344   12.2188 H       1  UNL1        0.2105
     20 C          68.4608   91.6973   15.8561 C.3     1  UNL1        0.1107
     21 N          67.4683   91.2989   14.8042 N.am    1  UNL1       -0.3026
     22 C          66.0127   91.6093   14.9905 C.2     1  UNL1        0.2240
     23 O          65.5494   92.3182   16.2287 O.2     1  UNL1       -0.2750
     24 H          67.7724   90.8337   13.9915 H       1  UNL1        0.1495
     25 N          59.3832   87.5969    8.3868 N.pl3   1  UNL1       -0.3153
     26 C          59.2705   86.4002    7.4894 C.3     1  UNL1        0.1097
     27 H          58.7610   88.3524    8.2803 H       1  UNL1        0.1483
     28 C          62.3380   85.1674   11.9035 C.1     1  UNL1       -0.0180
     29 C          62.7548   83.9072   12.6022 C.1     1  UNL1       -0.0196
     30 C          63.1715   82.6470   13.3009 C.ar    1  UNL1        0.1874
     31 C          62.8991   81.2481   12.8332 C.ar    1  UNL1        0.0494
     32 C          63.4931   80.3010   13.8332 C.ar    1  UNL1        0.0445
     33 C          64.1326   81.1146   14.9192 C.ar    1  UNL1        0.1806
     34 O          63.9339   82.5645   14.5901 O.2     1  UNL1       -0.4423
@<TRIPOS>BOND
     1    20    21    1
     2    21    22   am
     3    22    23    2
     4    10    22    1
     5    10    11    1
     6    12    11    1
     7    12    13    1
     8    13     1    1
     9     1     2   ar
    10     2     3   ar
    11     3     4   ar
    12     4     5   ar
    13     5    25    1
    14    25    26    1
    15     5     6   ar
    16     6     7   ar
    17     7    28    1
    18    28    29    3
    19    29    30    1
    20    30    31   ar
    21    31    32   ar
    22    32    33   ar
    23    33    34   ar
    24     7     8   ar
    25     8     9   ar
    26    13    14    1
    27    14    15    1
    28    14    16    1
    29    16    17    1
    30    12    10    1
    31     9     1   ar
    32    16    10    1
    33     9     4   ar
    34    34    30   ar
    35    21    24    1
    36    25    27    1
    37    15    18    1
    38    17    19    1
@<TRIPOS>MOLECULE
*****
 34 38 0 0 0
SMALL
GASTEIGER

@<TRIPOS>ATOM
      1 N          63.7556   89.3172   13.5553 N.ar    1  UNL1       -0.2937
      2 C          63.8096   88.8963   14.9941 C.ar    1  UNL1        0.1798
      3 N          64.5552   89.9503   15.7576 N.ar    1  UNL1       -0.2195
      4 C          64.9621   91.0226   14.7908 C.ar    1  UNL1        0.1483
      5 C          65.7187   92.3048   14.9740 C.ar    1  UNL1        0.1516
      6 N          65.9812   93.1957   13.7961 N.ar    1  UNL1       -0.2031
      7 C          65.4869   92.8044   12.4350 C.ar    1  UNL1        0.2094
      8 N          64.7303   91.5222   12.2518 N.ar    1  UNL1       -0.2003
      9 C          64.4679   90.6313   13.4297 C.ar    1  UNL1        0.1678
     10 C          61.9665   88.0324   10.3594 C.3     1  UNL1        0.0977
     11 C          61.8397   89.4506    9.8876 C.3     1  UNL1        0.0136
     12 C          62.5036   89.1532   11.1994 C.3     1  UNL1        0.0344
     13 C          63.1037   88.5574   12.4383 C.3     1  UNL1        0.1180
     14 C          62.9376   87.0685   12.3641 C.3     1  UNL1        0.1582
     15 O          63.3941   86.0779   13.3938 O.3     1  UNL1       -0.3800
     16 C          62.2347   86.7440   11.0792 C.3     1  UNL1        0.1471
     17 O          61.8650   85.3721   10.5986 O.3     1  UNL1       -0.3814
     18 H          63.1651   85.1811   13.1037 H       1  UNL1        0.2105
     19 H          62.1512   84.7131   11.2504 H       1  UNL1        0.2105
     20 C          59.1453   87.0012    7.7656 C.3     1  UNL1        0.1107
     21 N          59.8217   87.6222    8.9519 N.am    1  UNL1       -0.3026
     22 C          61.2902   87.4114    9.1732 C.2     1  UNL1        0.2240
     23 O          62.0824   86.5797    8.2085 O.2     1  UNL1       -0.2750
     24 H          59.3017   88.1681    9.5850 H       1  UNL1        0.1495
     25 N          66.2130   92.6961   16.3351 N.pl3   1  UNL1       -0.3153
     26 C          67.6838   92.6894   16.6295 C.3     1  UNL1        0.1097
     27 H          65.5720   92.9572   17.0353 H       1  UNL1        0.1483
     28 C          65.7493   93.6952   11.2571 C.1     1  UNL1       -0.0180
     29 C          66.0117   94.5860   10.0791 C.1     1  UNL1       -0.0196
     30 C          66.2741   95.4769    8.9012 C.ar    1  UNL1        0.1874
     31 C          67.6135   95.9956    8.4690 C.ar    1  UNL1        0.0494
     32 C          67.4103   96.8448    7.2493 C.ar    1  UNL1        0.0445
     33 C          65.9452   96.8509    6.9276 C.ar    1  UNL1        0.1806
     34 O          65.2430   96.0055    7.9485 O.2     1  UNL1       -0.4423
@<TRIPOS>BOND
     1    20    21    1
     2    21    22   am
     3    22    23    2
     4    10    22    1
     5    10    11    1
     6    12    11    1
     7    12    13    1
     8    13     1    1
     9     1     2   ar
    10     2     3   ar
    11     3     4   ar
    12     4     5   ar
    13     5    25    1
    14    25    26    1
    15     5     6   ar
    16     6     7   ar
    17     7    28    1
    18    28    29    3
    19    29    30    1
    20    30    31   ar
    21    31    32   ar
    22    32    33   ar
    23    33    34   ar
    24     7     8   ar
    25     8     9   ar
    26    13    14    1
    27    14    15    1
    28    14    16    1
    29    16    17    1
    30    12    10    1
    31     9     1   ar
    32    16    10    1
    33     9     4   ar
    34    34    30   ar
    35    21    24    1
    36    25    27    1
    37    15    18    1
    38    17    19    1
@<TRIPOS>MOLECULE
*****
 34 38 0 0 0
SMALL
GASTEIGER

@<TRIPOS>ATOM
      1 N          61.8460   86.0675   11.5247 N.ar    1  UNL1       -0.2937
      2 C          61.6176   84.5917   11.6665 C.ar    1  UNL1        0.1798
      3 N          62.5040   84.0892   12.7673 N.ar    1  UNL1       -0.2195
      4 C          63.2802   85.2544   13.3059 C.ar    1  UNL1        0.1483
      5 C          64.3047   85.3600   14.3963 C.ar    1  UNL1        0.1516
      6 N          64.9226   86.6883   14.7189 N.ar    1  UNL1       -0.2031
      7 C          64.5159   87.9109   13.9509 C.ar    1  UNL1        0.2094
      8 N          63.4913   87.8052   12.8604 N.ar    1  UNL1       -0.2003
      9 C          62.8735   86.4770   12.5379 C.ar    1  UNL1        0.1678
     10 C          60.0523   87.7985    8.5496 C.3     1  UNL1        0.0977
     11 C          60.0609   86.4916    7.8134 C.3     1  UNL1        0.0136
     12 C          60.6569   86.5826    9.1868 C.3     1  UNL1        0.0344
     13 C          61.1662   86.9745   10.5422 C.3     1  UNL1        0.1180
     14 C          60.8764   88.4325   10.7427 C.3     1  UNL1        0.1582
     15 O          61.2154   89.2395   11.9607 O.3     1  UNL1       -0.3800
     16 C          60.1879   88.9418    9.5111 C.3     1  UNL1        0.1471
     17 O          59.7177   90.3475    9.2814 O.3     1  UNL1       -0.3814
     18 H          60.9199   90.1548   11.8348 H       1  UNL1        0.2105
     19 H          59.9269   90.8894   10.0583 H       1  UNL1        0.2105
     20 C          59.4184   90.4263    5.6439 C.3     1  UNL1        0.1107
     21 N          60.1087   89.6438    6.7215 N.am    1  UNL1       -0.3026
     22 C          59.3620   88.5810    7.4719 C.2     1  UNL1        0.2240
     23 O          57.9252   88.3008    7.1448 O.2     1  UNL1       -0.2750
     24 H          61.0517   89.8276    6.9363 H       1  UNL1        0.1495
     25 N          64.7113   84.1374   15.1643 N.pl3   1  UNL1       -0.3153
     26 C          63.7356   83.0147   15.3586 C.3     1  UNL1        0.1097
     27 H          65.6186   84.0717   15.5409 H       1  UNL1        0.1483
     28 C          65.1337   89.2391   14.2734 C.1     1  UNL1       -0.0180
     29 C          65.7515   90.5673   14.5959 C.1     1  UNL1       -0.0196
     30 C          66.3694   91.8956   14.9184 C.ar    1  UNL1        0.1874
     31 C          67.4210   92.1499   15.9574 C.ar    1  UNL1        0.0494
     32 C          67.7456   93.6143   15.9397 C.ar    1  UNL1        0.0445
     33 C          66.8945   94.2651   14.8897 C.ar    1  UNL1        0.1806
     34 O          66.0440   93.2029   14.2586 O.2     1  UNL1       -0.4423
@<TRIPOS>BOND
     1    20    21    1
     2    21    22   am
     3    22    23    2
     4    10    22    1
     5    10    11    1
     6    12    11    1
     7    12    13    1
     8    13     1    1
     9     1     2   ar
    10     2     3   ar
    11     3     4   ar
    12     4     5   ar
    13     5    25    1
    14    25    26    1
    15     5     6   ar
    16     6     7   ar
    17     7    28    1
    18    28    29    3
    19    29    30    1
    20    30    31   ar
    21    31    32   ar
    22    32    33   ar
    23    33    34   ar
    24     7     8   ar
    25     8     9   ar
    26    13    14    1
    27    14    15    1
    28    14    16    1
    29    16    17    1
    30    12    10    1
    31     9     1   ar
    32    16    10    1
    33     9     4   ar
    34    34    30   ar
    35    21    24    1
    36    25    27    1
    37    15    18    1
    38    17    19    1
@<TRIPOS>MOLECULE
*****
 34 38 0 0 0
SMALL
GASTEIGER

@<TRIPOS>ATOM
      1 N          61.5818   85.9703   10.1892 N.ar    1  UNL1       -0.2937
      2 C          60.5040   85.6849    9.1858 C.ar    1  UNL1        0.1798
      3 N          60.0215   86.9955    8.6384 N.ar    1  UNL1       -0.2195
      4 C          60.8012   88.0909    9.3035 C.ar    1  UNL1        0.1483
      5 C          60.7576   89.5833    9.1602 C.ar    1  UNL1        0.1516
      6 N          61.6784   90.4423    9.9753 N.ar    1  UNL1       -0.2031
      7 C          62.6427   89.8087   10.9338 C.ar    1  UNL1        0.2094
      8 N          62.6862   88.3162   11.0771 N.ar    1  UNL1       -0.2003
      9 C          61.7655   87.4573   10.2619 C.ar    1  UNL1        0.1678
     10 C          63.1499   83.5867   12.8207 C.3     1  UNL1        0.0977
     11 C          62.2816   84.2123   13.8716 C.3     1  UNL1        0.0136
     12 C          62.2021   84.6892   12.4517 C.3     1  UNL1        0.0344
     13 C          62.3424   84.9483   10.9809 C.3     1  UNL1        0.1180
     14 C          63.3769   84.0058   10.4408 C.3     1  UNL1        0.1582
     15 O          63.8324   83.9200    9.0142 O.3     1  UNL1       -0.3800
     16 C          63.8760   83.1643   11.5779 C.3     1  UNL1        0.1471
     17 O          64.9180   82.0892   11.4879 O.3     1  UNL1       -0.3814
     18 H          64.5084   83.2293    8.9317 H       1  UNL1        0.2105
     19 H          65.2282   82.0154   10.5718 H       1  UNL1        0.2105
     20 C          64.0906   80.2021   14.6674 C.3     1  UNL1        0.1107
     21 N          63.4099   81.1745   13.7500 N.am    1  UNL1       -0.3026
     22 C          63.8305   82.6143   13.7380 C.2     1  UNL1        0.2240
     23 O          64.9315   83.0818   14.6431 O.2     1  UNL1       -0.2750
     24 H          62.6873   80.8677   13.1560 H       1  UNL1        0.1495
     25 N          59.7933   90.2169    8.2017 N.pl3   1  UNL1       -0.3153
     26 C          59.5988   89.6294    6.8352 C.3     1  UNL1        0.1097
     27 H          59.2880   91.0183    8.4694 H       1  UNL1        0.1483
     28 C          63.5634   90.6676   11.7489 C.1     1  UNL1       -0.0180
     29 C          64.4842   91.5265   12.5641 C.1     1  UNL1       -0.0196
     30 C          65.4050   92.3854   13.3792 C.ar    1  UNL1        0.1874
     31 C          65.9720   92.0407   14.7244 C.ar    1  UNL1        0.0494
     32 C          66.8379   93.1821   15.1688 C.ar    1  UNL1        0.0445
     33 C          66.8060   94.2323   14.0982 C.ar    1  UNL1        0.1806
     34 O          65.9204   93.7399   12.9922 O.2     1  UNL1       -0.4423
@<TRIPOS>BOND
     1    20    21    1
     2    21    22   am
     3    22    23    2
     4    10    22    1
     5    10    11    1
     6    12    11    1
     7    12    13    1
     8    13     1    1
     9     1     2   ar
    10     2     3   ar
    11     3     4   ar
    12     4     5   ar
    13     5    25    1
    14    25    26    1
    15     5     6   ar
    16     6     7   ar
    17     7    28    1
    18    28    29    3
    19    29    30    1
    20    30    31   ar
    21    31    32   ar
    22    32    33   ar
    23    33    34   ar
    24     7     8   ar
    25     8     9   ar
    26    13    14    1
    27    14    15    1
    28    14    16    1
    29    16    17    1
    30    12    10    1
    31     9     1   ar
    32    16    10    1
    33     9     4   ar
    34    34    30   ar
    35    21    24    1
    36    25    27    1
    37    15    18    1
    38    17    19    1
@<TRIPOS>MOLECULE
*****
 34 38 0 0 0
SMALL
GASTEIGER

@<TRIPOS>ATOM
      1 N          63.9002   85.4888   13.9230 N.ar    1  UNL1       -0.2937
      2 C          64.7426   85.8334   15.1154 C.ar    1  UNL1        0.1798
      3 N          64.8851   87.3257   15.1664 N.ar    1  UNL1       -0.2195
      4 C          64.1309   87.9035   14.0057 C.ar    1  UNL1        0.1483
      5 C          63.9198   89.3166   13.5492 C.ar    1  UNL1        0.1516
      6 N          63.0999   89.5945   12.3242 N.ar    1  UNL1       -0.2031
      7 C          62.4912   88.4593   11.5557 C.ar    1  UNL1        0.2094
      8 N          62.7023   87.0461   12.0122 N.ar    1  UNL1       -0.2003
      9 C          63.5222   86.7682   13.2372 C.ar    1  UNL1        0.1678
     10 C          63.2925   82.0658   12.1971 C.3     1  UNL1        0.0977
     11 C          64.1476   82.5176   11.0505 C.3     1  UNL1        0.0136
     12 C          63.9124   83.4316   12.2164 C.3     1  UNL1        0.0344
     13 C          63.5052   84.1074   13.4921 C.3     1  UNL1        0.1180
     14 C          62.6336   83.1594   14.2613 C.3     1  UNL1        0.1582
     15 O          62.0041   83.4262   15.5964 O.3     1  UNL1       -0.3800
     16 C          62.5021   81.8975   13.4609 C.3     1  UNL1        0.1471
     17 O          61.7181   80.6811   13.8551 O.3     1  UNL1       -0.3814
     18 H          61.4905   82.6510   15.8724 H       1  UNL1        0.2105
     19 H          61.3009   80.8309   14.7178 H       1  UNL1        0.2105
     20 C          62.7023   79.1299    9.5928 C.3     1  UNL1        0.1107
     21 N          63.0126   80.4862   10.1534 N.am    1  UNL1       -0.3026
     22 C          62.9822   80.7095   11.6364 C.2     1  UNL1        0.2240
     23 O          62.6415   79.5767   12.5587 O.2     1  UNL1       -0.2750
     24 H          63.2362   81.2297    9.5481 H       1  UNL1        0.1495
     25 N          64.5286   90.4519   14.3177 N.pl3   1  UNL1       -0.3153
     26 C          63.9513   90.8560   15.6419 C.3     1  UNL1        0.1097
     27 H          65.3070   90.9318   13.9530 H       1  UNL1        0.1483
     28 C          61.6713   88.7371   10.3307 C.1     1  UNL1       -0.0180
     29 C          60.8515   89.0150    9.1058 C.1     1  UNL1       -0.0196
     30 C          60.0316   89.2929    7.8807 C.ar    1  UNL1        0.1874
     31 C          58.8485   88.4985    7.4127 C.ar    1  UNL1        0.0494
     32 C          58.3366   89.1286    6.1514 C.ar    1  UNL1        0.0445
     33 C          59.2034   90.3126    5.8399 C.ar    1  UNL1        0.1806
     34 O          60.2510   90.4141    6.9087 O.2     1  UNL1       -0.4423
@<TRIPOS>BOND
     1    20    21    1
     2    21    22   am
     3    22    23    2
     4    10    22    1
     5    10    11    1
     6    12    11    1
     7    12    13    1
     8    13     1    1
     9     1     2   ar
    10     2     3   ar
    11     3     4   ar
    12     4     5   ar
    13     5    25    1
    14    25    26    1
    15     5     6   ar
    16     6     7   ar
    17     7    28    1
    18    28    29    3
    19    29    30    1
    20    30    31   ar
    21    31    32   ar
    22    32    33   ar
    23    33    34   ar
    24     7     8   ar
    25     8     9   ar
    26    13    14    1
    27    14    15    1
    28    14    16    1
    29    16    17    1
    30    12    10    1
    31     9     1   ar
    32    16    10    1
    33     9     4   ar
    34    34    30   ar
    35    21    24    1
    36    25    27    1
    37    15    18    1
    38    17    19    1
