@<TRIPOS>MOLECULE
*****
 30 32 0 0 0
SMALL
GASTEIGER

@<TRIPOS>ATOM
      1 C          63.1443   89.8172   13.1584 C.ar    1  UNL1        0.1393
      2 N          62.0429   89.2838   12.2910 N.ar    1  UNL1       -0.2155
      3 C          61.8614   89.8129   10.8992 C.ar    1  UNL1        0.1343
      4 C          62.7812   90.8753   10.3748 C.ar    1  UNL1        0.0310
      5 C          63.8827   91.4087   11.2422 C.ar    1  UNL1       -0.0067
      6 C          64.8025   92.4712   10.7178 C.3     1  UNL1        0.0319
      7 C          64.0642   90.8797   12.6340 C.ar    1  UNL1        0.0959
      8 N          63.3258   89.2882   14.5502 N.pl3   1  UNL1       -0.3145
      9 H          62.7045   89.5584   15.2645 H       1  UNL1        0.1483
     10 C          64.4540   88.3473   14.8538 C.3     1  UNL1        0.1362
     11 C          64.2468   86.8661   14.7388 C.3     1  UNL1        0.2266
     12 O          63.5690   86.2953   13.5285 O.3     1  UNL1       -0.4720
     13 C          62.3078   80.4346   13.2806 C.3     1  UNL1        0.0521
     14 C          62.6231   81.8998   13.3426 C.ar    1  UNL1        0.0596
     15 C          62.6746   82.7099   12.0812 C.ar    1  UNL1        0.0179
     16 C          62.9899   84.1751   12.1432 C.ar    1  UNL1        0.0397
     17 C          63.2537   84.8302   13.4665 C.ar    1  UNL1        0.1577
     18 C          63.2021   84.0201   14.7279 C.ar    1  UNL1        0.1352
     19 N          62.8868   82.5549   14.6659 N.ar    1  UNL1       -0.2450
     20 N          60.7599   89.2794   10.0318 N.pl3   1  UNL1       -0.2837
     21 H          59.9156   89.7784    9.9458 H       1  UNL1        0.1550
     22 C          60.9449   87.9857    9.2955 C.ar    1  UNL1        0.1276
     23 C          62.1883   87.1468    9.2857 C.ar    1  UNL1        0.0503
     24 C          61.9309   85.9464    8.4239 C.ar    1  UNL1        0.0815
     25 C          62.9050   84.8428    8.1356 C.3     1  UNL1        0.0540
     26 N          60.5283   86.0434    7.9010 N.ar    1  UNL1       -0.1760
     27 N          59.9189   87.3038    8.4397 N.ar    1  UNL1       -0.2631
     28 H          59.0059   87.6268    8.2627 H       1  UNL1        0.1903
     29 C          65.1656   91.4131   13.5014 C.1     1  UNL1        0.1029
     30 N          66.2669   91.9465   14.3688 N.1     1  UNL1       -0.1907
@<TRIPOS>BOND
     1    13    14    1
     2    14    15   ar
     3    15    16   ar
     4    16    17   ar
     5    17    12    1
     6    12    11    1
     7    11    10    1
     8    10     8    1
     9     8     1    1
    10     1     2   ar
    11     2     3   ar
    12     3    20    1
    13    20    22    1
    14    22    23   ar
    15    23    24   ar
    16    24    25    1
    17    24    26   ar
    18    26    27   ar
    19     3     4   ar
    20     4     5   ar
    21     5     6    1
    22     5     7   ar
    23     7    29    1
    24    29    30    3
    25    17    18   ar
    26    18    19   ar
    27    19    14   ar
    28     7     1   ar
    29    27    22   ar
    30     8     9    1
    31    20    21    1
    32    27    28    1
@<TRIPOS>MOLECULE
*****
 30 32 0 0 0
SMALL
GASTEIGER

@<TRIPOS>ATOM
      1 C          61.8069   86.5002   10.1773 C.ar    1  UNL1        0.1393
      2 N          61.9140   87.4486   11.3345 N.ar    1  UNL1       -0.2155
      3 C          61.2000   88.7671   11.2921 C.ar    1  UNL1        0.1343
      4 C          60.3789   89.1372   10.0927 C.ar    1  UNL1        0.0310
      5 C          60.2718   88.1888    8.9354 C.ar    1  UNL1       -0.0067
      6 C          59.4507   88.5589    7.7360 C.3     1  UNL1        0.0319
      7 C          60.9858   86.8703    8.9777 C.ar    1  UNL1        0.0959
      8 N          62.5208   85.1817   10.2196 N.pl3   1  UNL1       -0.3145
      9 H          62.9100   84.8060    9.3970 H       1  UNL1        0.1483
     10 C          62.6419   84.4356   11.5153 C.3     1  UNL1        0.1362
     11 C          63.8100   83.5241   11.7496 C.3     1  UNL1        0.2266
     12 O          64.1981   83.1468   13.1485 O.3     1  UNL1       -0.4720
     13 C          62.6797   86.6939   17.7433 C.3     1  UNL1        0.0521
     14 C          63.0593   85.8071   16.5946 C.ar    1  UNL1        0.0596
     15 C          64.2077   86.1819   15.7054 C.ar    1  UNL1        0.0179
     16 C          64.5873   85.2951   14.5567 C.ar    1  UNL1        0.0397
     17 C          63.8185   84.0336   14.2972 C.ar    1  UNL1        0.1577
     18 C          62.6701   83.6588   15.1864 C.ar    1  UNL1        0.1352
     19 N          62.2905   84.5456   16.3351 N.ar    1  UNL1       -0.2450
     20 N          61.3072   89.7155   12.4494 N.pl3   1  UNL1       -0.2837
     21 H          60.5469   89.8296   13.0643 H       1  UNL1        0.1550
     22 C          62.5727   90.4900   12.6696 C.ar    1  UNL1        0.1276
     23 C          63.4571   91.0569   11.5989 C.ar    1  UNL1        0.0503
     24 C          64.6070   91.7509   12.2668 C.ar    1  UNL1        0.0815
     25 C          65.7329   92.4586   11.5729 C.3     1  UNL1        0.0540
     26 N          64.4333   91.6129   13.7503 N.ar    1  UNL1       -0.1760
     27 N          63.1761   90.8336   13.9993 N.ar    1  UNL1       -0.2631
     28 H          62.8110   90.5903   14.8806 H       1  UNL1        0.1903
     29 C          60.8786   85.9219    7.8206 C.1     1  UNL1        0.1029
     30 N          60.7715   84.9735    6.6634 N.1     1  UNL1       -0.1907
@<TRIPOS>BOND
     1    13    14    1
     2    14    15   ar
     3    15    16   ar
     4    16    17   ar
     5    17    12    1
     6    12    11    1
     7    11    10    1
     8    10     8    1
     9     8     1    1
    10     1     2   ar
    11     2     3   ar
    12     3    20    1
    13    20    22    1
    14    22    23   ar
    15    23    24   ar
    16    24    25    1
    17    24    26   ar
    18    26    27   ar
    19     3     4   ar
    20     4     5   ar
    21     5     6    1
    22     5     7   ar
    23     7    29    1
    24    29    30    3
    25    17    18   ar
    26    18    19   ar
    27    19    14   ar
    28     7     1   ar
    29    27    22   ar
    30     8     9    1
    31    20    21    1
    32    27    28    1
@<TRIPOS>MOLECULE
*****
 30 32 0 0 0
SMALL
GASTEIGER

@<TRIPOS>ATOM
      1 C          63.6544   89.8077   13.3437 C.ar    1  UNL1        0.1393
      2 N          64.5948   90.9496   13.5918 N.ar    1  UNL1       -0.2155
      3 C          64.8483   91.9605   12.5130 C.ar    1  UNL1        0.1343
      4 C          64.1613   91.8296   11.1861 C.ar    1  UNL1        0.0310
      5 C          63.2207   90.6877   10.9379 C.ar    1  UNL1       -0.0067
      6 C          62.5337   90.5568    9.6109 C.3     1  UNL1        0.0319
      7 C          62.9673   89.6767   12.0167 C.ar    1  UNL1        0.0959
      8 N          63.4009   88.7968   14.4224 N.pl3   1  UNL1       -0.3145
      9 H          62.5087   88.7281   14.8329 H       1  UNL1        0.1483
     10 C          64.5069   87.8905   14.8758 C.3     1  UNL1        0.1362
     11 C          64.4029   86.4108   14.6529 C.3     1  UNL1        0.2266
     12 O          63.5855   85.8796   13.5129 O.3     1  UNL1       -0.4720
     13 C          62.2345   80.0394   13.2552 C.3     1  UNL1        0.0521
     14 C          62.5722   81.4994   13.3197 C.ar    1  UNL1        0.0596
     15 C          62.4540   82.3515   12.0909 C.ar    1  UNL1        0.0179
     16 C          62.7918   83.8116   12.1553 C.ar    1  UNL1        0.0397
     17 C          63.2477   84.4196   13.4485 C.ar    1  UNL1        0.1577
     18 C          63.3659   83.5675   14.6773 C.ar    1  UNL1        0.1352
     19 N          63.0282   82.1074   14.6129 N.ar    1  UNL1       -0.2450
     20 N          65.7888   93.1024   12.7613 N.pl3   1  UNL1       -0.2837
     21 H          65.9640   93.4047   13.6817 H       1  UNL1        0.1550
     22 C          66.4623   93.7838   11.6071 C.ar    1  UNL1        0.1276
     23 C          66.1948   95.1804   11.1297 C.ar    1  UNL1        0.0503
     24 C          67.0887   95.4480    9.9553 C.ar    1  UNL1        0.0815
     25 C          67.1516   96.7230    9.1676 C.3     1  UNL1        0.0540
     26 N          67.9087   94.2167    9.7069 N.ar    1  UNL1       -0.1760
     27 N          67.5216   93.1882   10.7278 N.ar    1  UNL1       -0.2631
     28 H          67.8968   92.2815   10.8068 H       1  UNL1        0.1903
     29 C          62.0268   88.5349   11.7685 C.1     1  UNL1        0.1029
     30 N          61.0864   87.3930   11.5203 N.1     1  UNL1       -0.1907
@<TRIPOS>BOND
     1    13    14    1
     2    14    15   ar
     3    15    16   ar
     4    16    17   ar
     5    17    12    1
     6    12    11    1
     7    11    10    1
     8    10     8    1
     9     8     1    1
    10     1     2   ar
    11     2     3   ar
    12     3    20    1
    13    20    22    1
    14    22    23   ar
    15    23    24   ar
    16    24    25    1
    17    24    26   ar
    18    26    27   ar
    19     3     4   ar
    20     4     5   ar
    21     5     6    1
    22     5     7   ar
    23     7    29    1
    24    29    30    3
    25    17    18   ar
    26    18    19   ar
    27    19    14   ar
    28     7     1   ar
    29    27    22   ar
    30     8     9    1
    31    20    21    1
    32    27    28    1
@<TRIPOS>MOLECULE
*****
 30 32 0 0 0
SMALL
GASTEIGER

@<TRIPOS>ATOM
      1 C          63.0330   84.9559   11.8081 C.ar    1  UNL1        0.1393
      2 N          62.4606   86.3097   12.1074 N.ar    1  UNL1       -0.2155
      3 C          62.0273   87.2056   10.9851 C.ar    1  UNL1        0.1343
      4 C          62.1662   86.7477    9.5635 C.ar    1  UNL1        0.0310
      5 C          62.7386   85.3939    9.2642 C.ar    1  UNL1       -0.0067
      6 C          62.8775   84.9360    7.8426 C.3     1  UNL1        0.0319
      7 C          63.1720   84.4980   10.3865 C.ar    1  UNL1        0.0959
      8 N          63.4664   84.0600   12.9304 N.pl3   1  UNL1       -0.3145
      9 H          64.4181   83.8326   13.0393 H       1  UNL1        0.1483
     10 C          62.4497   83.5106   13.8868 C.3     1  UNL1        0.1362
     11 C          62.7504   83.4635   15.3556 C.3     1  UNL1        0.2266
     12 O          63.8709   84.2865   15.9186 O.3     1  UNL1       -0.4720
     13 C          63.2049   90.2133   16.5731 C.3     1  UNL1        0.0521
     14 C          63.3714   88.7316   16.4095 C.ar    1  UNL1        0.0596
     15 C          62.8387   87.7971   17.4548 C.ar    1  UNL1        0.0179
     16 C          63.0052   86.3153   17.2912 C.ar    1  UNL1        0.0397
     17 C          63.7044   85.7682   16.0822 C.ar    1  UNL1        0.1577
     18 C          64.2372   86.7027   15.0369 C.ar    1  UNL1        0.1352
     19 N          64.0707   88.1845   15.2005 N.ar    1  UNL1       -0.2450
     20 N          61.4549   88.5595   11.2845 N.pl3   1  UNL1       -0.2837
     21 H          60.4887   88.7189   11.1829 H       1  UNL1        0.1550
     22 C          62.3546   89.6704   11.7387 C.ar    1  UNL1        0.1276
     23 C          63.2409   90.5023   10.8599 C.ar    1  UNL1        0.0503
     24 C          63.9600   91.4905   11.7295 C.ar    1  UNL1        0.0815
     25 C          64.9476   92.5193   11.2645 C.3     1  UNL1        0.0540
     26 N          63.5182   91.2693   13.1459 N.ar    1  UNL1       -0.1760
     27 N          62.5260   90.1444   13.1515 N.ar    1  UNL1       -0.2631
     28 H          62.0677   89.7810   13.9435 H       1  UNL1        0.1903
     29 C          63.7443   83.1442   10.0871 C.1     1  UNL1        0.1029
     30 N          64.3167   81.7904    9.7878 N.1     1  UNL1       -0.1907
@<TRIPOS>BOND
     1    13    14    1
     2    14    15   ar
     3    15    16   ar
     4    16    17   ar
     5    17    12    1
     6    12    11    1
     7    11    10    1
     8    10     8    1
     9     8     1    1
    10     1     2   ar
    11     2     3   ar
    12     3    20    1
    13    20    22    1
    14    22    23   ar
    15    23    24   ar
    16    24    25    1
    17    24    26   ar
    18    26    27   ar
    19     3     4   ar
    20     4     5   ar
    21     5     6    1
    22     5     7   ar
    23     7    29    1
    24    29    30    3
    25    17    18   ar
    26    18    19   ar
    27    19    14   ar
    28     7     1   ar
    29    27    22   ar
    30     8     9    1
    31    20    21    1
    32    27    28    1
@<TRIPOS>MOLECULE
*****
 30 32 0 0 0
SMALL
GASTEIGER

@<TRIPOS>ATOM
      1 C          60.7558   87.1091   10.9293 C.ar    1  UNL1        0.1393
      2 N          61.6344   86.4139   11.9266 N.ar    1  UNL1       -0.2155
      3 C          62.6370   85.3987   11.4637 C.ar    1  UNL1        0.1343
      4 C          62.7610   85.0788   10.0035 C.ar    1  UNL1        0.0310
      5 C          61.8823   85.7739    9.0061 C.ar    1  UNL1       -0.0067
      6 C          62.0063   85.4540    7.5459 C.3     1  UNL1        0.0319
      7 C          60.8797   86.7891    9.4690 C.ar    1  UNL1        0.0959
      8 N          59.7532   88.1242   11.3921 N.pl3   1  UNL1       -0.3145
      9 H          58.8072   87.8711   11.4934 H       1  UNL1        0.1483
     10 C          60.1919   89.5251   11.7007 C.3     1  UNL1        0.1362
     11 C          61.6533   89.8605   11.7458 C.3     1  UNL1        0.2266
     12 O          62.4299   89.6605   13.0133 O.3     1  UNL1       -0.4720
     13 C          66.8916   93.4166   14.4224 C.3     1  UNL1        0.0521
     14 C          65.7762   92.4776   14.0701 C.ar    1  UNL1        0.0596
     15 C          65.3629   92.3076   12.6383 C.ar    1  UNL1        0.0179
     16 C          64.2474   91.3686   12.2860 C.ar    1  UNL1        0.0397
     17 C          63.5453   90.5995   13.3656 C.ar    1  UNL1        0.1577
     18 C          63.9586   90.7695   14.7974 C.ar    1  UNL1        0.1352
     19 N          65.0741   91.7085   15.1497 N.ar    1  UNL1       -0.2450
     20 N          63.5157   84.7035   12.4611 N.pl3   1  UNL1       -0.2837
     21 H          64.3980   85.0784   12.6854 H       1  UNL1        0.1550
     22 C          63.0501   83.4373   13.1167 C.ar    1  UNL1        0.1276
     23 C          62.9424   82.0928   12.4604 C.ar    1  UNL1        0.0503
     24 C          62.4362   81.1177   13.4817 C.ar    1  UNL1        0.0815
     25 C          62.1801   79.6572   13.2553 C.3     1  UNL1        0.0540
     26 N          62.2310   81.8597   14.7692 N.ar    1  UNL1       -0.1760
     27 N          62.6104   83.2932   14.5435 N.ar    1  UNL1       -0.2631
     28 H          62.5768   84.0132   15.2142 H       1  UNL1        0.1903
     29 C          60.0011   87.4843    8.4717 C.1     1  UNL1        0.1029
     30 N          59.1225   88.1795    7.4744 N.1     1  UNL1       -0.1907
@<TRIPOS>BOND
     1    13    14    1
     2    14    15   ar
     3    15    16   ar
     4    16    17   ar
     5    17    12    1
     6    12    11    1
     7    11    10    1
     8    10     8    1
     9     8     1    1
    10     1     2   ar
    11     2     3   ar
    12     3    20    1
    13    20    22    1
    14    22    23   ar
    15    23    24   ar
    16    24    25    1
    17    24    26   ar
    18    26    27   ar
    19     3     4   ar
    20     4     5   ar
    21     5     6    1
    22     5     7   ar
    23     7    29    1
    24    29    30    3
    25    17    18   ar
    26    18    19   ar
    27    19    14   ar
    28     7     1   ar
    29    27    22   ar
    30     8     9    1
    31    20    21    1
    32    27    28    1
@<TRIPOS>MOLECULE
*****
 30 32 0 0 0
SMALL
GASTEIGER

@<TRIPOS>ATOM
      1 C          63.5661   89.7195   13.1097 C.ar    1  UNL1        0.1393
      2 N          64.4840   90.8998   13.2290 N.ar    1  UNL1       -0.2155
      3 C          64.6409   91.8474   12.0769 C.ar    1  UNL1        0.1343
      4 C          63.8798   91.6148   10.8055 C.ar    1  UNL1        0.0310
      5 C          62.9619   90.4344   10.6861 C.ar    1  UNL1       -0.0067
      6 C          62.2008   90.2018    9.4146 C.3     1  UNL1        0.0319
      7 C          62.8050   89.4868   11.8382 C.ar    1  UNL1        0.0959
      8 N          63.4092   88.7718   14.2618 N.pl3   1  UNL1       -0.3145
      9 H          62.5921   88.7949   14.8104 H       1  UNL1        0.1483
     10 C          64.4974   87.7889   14.5780 C.3     1  UNL1        0.1362
     11 C          64.2105   86.3169   14.5477 C.3     1  UNL1        0.2266
     12 O          63.1610   85.7763   13.6224 O.3     1  UNL1       -0.4720
     13 C          62.2548   79.8571   13.2456 C.3     1  UNL1        0.0521
     14 C          62.4813   81.3369   13.3398 C.ar    1  UNL1        0.0596
     15 C          62.6662   82.1483   12.0918 C.ar    1  UNL1        0.0179
     16 C          62.8928   83.6281   12.1860 C.ar    1  UNL1        0.0397
     17 C          62.9345   84.2965   13.5282 C.ar    1  UNL1        0.1577
     18 C          62.7496   83.4851   14.7761 C.ar    1  UNL1        0.1352
     19 N          62.5230   82.0053   14.6819 N.ar    1  UNL1       -0.2450
     20 N          65.5589   93.0278   12.1964 N.pl3   1  UNL1       -0.2837
     21 H          65.3820   93.8436   11.6745 H       1  UNL1        0.1550
     22 C          66.7461   92.9650   13.1108 C.ar    1  UNL1        0.1276
     23 C          66.8938   93.6911   14.4150 C.ar    1  UNL1        0.0503
     24 C          68.2332   93.3400   14.9920 C.ar    1  UNL1        0.0815
     25 C          68.7940   93.8436   16.2889 C.3     1  UNL1        0.0540
     26 N          68.9133   92.3968   14.0443 N.ar    1  UNL1       -0.1760
     27 N          67.9942   92.1651   12.8817 N.ar    1  UNL1       -0.2631
     28 H          68.1779   91.5891   12.1047 H       1  UNL1        0.1903
     29 C          61.8871   88.3065   11.7188 C.1     1  UNL1        0.1029
     30 N          60.9692   87.1262   11.5994 N.1     1  UNL1       -0.1907
@<TRIPOS>BOND
     1    13    14    1
     2    14    15   ar
     3    15    16   ar
     4    16    17   ar
     5    17    12    1
     6    12    11    1
     7    11    10    1
     8    10     8    1
     9     8     1    1
    10     1     2   ar
    11     2     3   ar
    12     3    20    1
    13    20    22    1
    14    22    23   ar
    15    23    24   ar
    16    24    25    1
    17    24    26   ar
    18    26    27   ar
    19     3     4   ar
    20     4     5   ar
    21     5     6    1
    22     5     7   ar
    23     7    29    1
    24    29    30    3
    25    17    18   ar
    26    18    19   ar
    27    19    14   ar
    28     7     1   ar
    29    27    22   ar
    30     8     9    1
    31    20    21    1
    32    27    28    1
@<TRIPOS>MOLECULE
*****
 30 32 0 0 0
SMALL
GASTEIGER

@<TRIPOS>ATOM
      1 C          63.1544   87.9706   12.6794 C.ar    1  UNL1        0.1393
      2 N          63.6772   86.8604   13.5420 N.ar    1  UNL1       -0.2155
      3 C          63.4577   85.4319   13.1408 C.ar    1  UNL1        0.1343
      4 C          62.7153   85.1134   11.8769 C.ar    1  UNL1        0.0310
      5 C          62.1924   86.2236   11.0142 C.ar    1  UNL1       -0.0067
      6 C          61.4499   85.9051    9.7504 C.3     1  UNL1        0.0319
      7 C          62.4119   87.6521   11.4154 C.ar    1  UNL1        0.0959
      8 N          63.3739   89.3991   13.0806 N.pl3   1  UNL1       -0.3145
      9 H          62.7811   90.1045   12.7337 H       1  UNL1        0.1483
     10 C          64.4967   89.7530   14.0103 C.3     1  UNL1        0.1362
     11 C          64.3917   90.9670   14.8850 C.3     1  UNL1        0.2266
     12 O          65.1561   92.2100   14.5378 O.3     1  UNL1       -0.4720
     13 C          68.4727   92.3947    9.5412 C.3     1  UNL1        0.0521
     14 C          67.6435   92.3485   10.7903 C.ar    1  UNL1        0.0596
     15 C          66.1776   92.6603   10.7294 C.ar    1  UNL1        0.0179
     16 C          65.3484   92.6141   11.9785 C.ar    1  UNL1        0.0397
     17 C          65.9853   92.2562   13.2886 C.ar    1  UNL1        0.1577
     18 C          67.4512   91.9444   13.3495 C.ar    1  UNL1        0.1352
     19 N          68.2804   91.9906   12.1004 N.ar    1  UNL1       -0.2450
     20 N          63.9806   84.3217   14.0035 N.pl3   1  UNL1       -0.2837
     21 H          64.7566   84.4772   14.5891 H       1  UNL1        0.1550
     22 C          63.3213   82.9748   13.9739 C.ar    1  UNL1        0.1276
     23 C          63.5277   81.9147   12.9329 C.ar    1  UNL1        0.0503
     24 C          62.6738   80.7362   13.2957 C.ar    1  UNL1        0.0815
     25 C          62.5719   79.4515   12.5281 C.3     1  UNL1        0.0540
     26 N          61.9395   81.0678   14.5611 N.ar    1  UNL1       -0.1760
     27 N          62.3397   82.4513   14.9801 N.ar    1  UNL1       -0.2631
     28 H          62.0151   82.9315   15.7759 H       1  UNL1        0.1903
     29 C          61.8890   88.7623   10.5528 C.1     1  UNL1        0.1029
     30 N          61.3661   89.8724    9.6902 N.1     1  UNL1       -0.1907
@<TRIPOS>BOND
     1    13    14    1
     2    14    15   ar
     3    15    16   ar
     4    16    17   ar
     5    17    12    1
     6    12    11    1
     7    11    10    1
     8    10     8    1
     9     8     1    1
    10     1     2   ar
    11     2     3   ar
    12     3    20    1
    13    20    22    1
    14    22    23   ar
    15    23    24   ar
    16    24    25    1
    17    24    26   ar
    18    26    27   ar
    19     3     4   ar
    20     4     5   ar
    21     5     6    1
    22     5     7   ar
    23     7    29    1
    24    29    30    3
    25    17    18   ar
    26    18    19   ar
    27    19    14   ar
    28     7     1   ar
    29    27    22   ar
    30     8     9    1
    31    20    21    1
    32    27    28    1
@<TRIPOS>MOLECULE
*****
 30 32 0 0 0
SMALL
GASTEIGER

@<TRIPOS>ATOM
      1 C          62.4642   85.5981   11.2420 C.ar    1  UNL1        0.1393
      2 N          62.6845   85.4788   12.7209 N.ar    1  UNL1       -0.2155
      3 C          63.5409   84.3739   13.2649 C.ar    1  UNL1        0.1343
      4 C          64.1770   83.3884   12.3300 C.ar    1  UNL1        0.0310
      5 C          63.9567   83.5077   10.8510 C.ar    1  UNL1       -0.0067
      6 C          64.5928   82.5222    9.9161 C.3     1  UNL1        0.0319
      7 C          63.1003   84.6125   10.3070 C.ar    1  UNL1        0.0959
      8 N          61.6078   86.7029   10.6980 N.pl3   1  UNL1       -0.3145
      9 H          60.6627   86.5321   10.4815 H       1  UNL1        0.1483
     10 C          62.1914   88.0681   10.4838 C.3     1  UNL1        0.1362
     11 C          62.1214   89.0935   11.5763 C.3     1  UNL1        0.2266
     12 O          63.0198   88.9780   12.7719 O.3     1  UNL1       -0.4720
     13 C          66.7228   93.4815   14.1884 C.3     1  UNL1        0.0521
     14 C          65.7970   92.3556   13.8343 C.ar    1  UNL1        0.0596
     15 C          65.7075   91.1505   14.7229 C.ar    1  UNL1        0.0179
     16 C          64.7818   90.0246   14.3688 C.ar    1  UNL1        0.0397
     17 C          63.9456   90.1039   13.1260 C.ar    1  UNL1        0.1577
     18 C          64.0351   91.3090   12.2374 C.ar    1  UNL1        0.1352
     19 N          64.9608   92.4348   12.5915 N.ar    1  UNL1       -0.2450
     20 N          63.7612   84.2547   14.7438 N.pl3   1  UNL1       -0.2837
     21 H          64.2552   83.4846   15.1074 H       1  UNL1        0.1550
     22 C          63.2287   85.3086   15.6688 C.ar    1  UNL1        0.1276
     23 C          63.7763   86.6953   15.8336 C.ar    1  UNL1        0.0503
     24 C          62.9412   87.4047   16.8581 C.ar    1  UNL1        0.0815
     25 C          63.1357   88.8148   17.3312 C.3     1  UNL1        0.0540
     26 N          61.8775   86.4563   17.3264 N.ar    1  UNL1       -0.1760
     27 N          62.0552   85.1609   16.5914 N.ar    1  UNL1       -0.2631
     28 H          61.4993   84.3552   16.6961 H       1  UNL1        0.1903
     29 C          62.8800   84.7319    8.8281 C.1     1  UNL1        0.1029
     30 N          62.6597   84.8512    7.3492 N.1     1  UNL1       -0.1907
@<TRIPOS>BOND
     1    13    14    1
     2    14    15   ar
     3    15    16   ar
     4    16    17   ar
     5    17    12    1
     6    12    11    1
     7    11    10    1
     8    10     8    1
     9     8     1    1
    10     1     2   ar
    11     2     3   ar
    12     3    20    1
    13    20    22    1
    14    22    23   ar
    15    23    24   ar
    16    24    25    1
    17    24    26   ar
    18    26    27   ar
    19     3     4   ar
    20     4     5   ar
    21     5     6    1
    22     5     7   ar
    23     7    29    1
    24    29    30    3
    25    17    18   ar
    26    18    19   ar
    27    19    14   ar
    28     7     1   ar
    29    27    22   ar
    30     8     9    1
    31    20    21    1
    32    27    28    1
@<TRIPOS>MOLECULE
*****
 30 32 0 0 0
SMALL
GASTEIGER

@<TRIPOS>ATOM
      1 C          61.2711   88.4834   10.5628 C.ar    1  UNL1        0.1393
      2 N          61.9956   87.7598   11.6589 N.ar    1  UNL1       -0.2155
      3 C          62.3515   86.3119   11.4942 C.ar    1  UNL1        0.1343
      4 C          61.9829   85.5877   10.2335 C.ar    1  UNL1        0.0310
      5 C          61.2583   86.3113    9.1373 C.ar    1  UNL1       -0.0067
      6 C          60.8897   85.5870    7.8765 C.3     1  UNL1        0.0319
      7 C          60.9025   87.7591    9.3019 C.ar    1  UNL1        0.0959
      8 N          60.9153   89.9312   10.7274 N.pl3   1  UNL1       -0.3145
      9 H          60.0103   90.2447   10.4996 H       1  UNL1        0.1483
     10 C          61.9384   90.9015   11.2392 C.3     1  UNL1        0.1362
     11 C          63.3139   90.9259   10.6414 C.3     1  UNL1        0.2266
     12 O          64.2195   92.0953   10.8909 O.3     1  UNL1       -0.4720
     13 C          67.9565   92.0476   15.5848 C.3     1  UNL1        0.0521
     14 C          67.0223   92.0596   14.4113 C.ar    1  UNL1        0.0596
     15 C          65.7403   91.2827   14.4654 C.ar    1  UNL1        0.0179
     16 C          64.8060   91.2946   13.2919 C.ar    1  UNL1        0.0397
     17 C          65.1537   92.0834   12.0644 C.ar    1  UNL1        0.1577
     18 C          66.4357   92.8602   12.0103 C.ar    1  UNL1        0.1352
     19 N          67.3700   92.8483   13.1838 N.ar    1  UNL1       -0.2450
     20 N          63.0760   85.5883   12.5904 N.pl3   1  UNL1       -0.2837
     21 H          63.3554   86.0740   13.3999 H       1  UNL1        0.1550
     22 C          63.3748   84.1248   12.4531 C.ar    1  UNL1        0.1276
     23 C          62.4705   82.9986   12.8577 C.ar    1  UNL1        0.0503
     24 C          63.1672   81.7083   12.5418 C.ar    1  UNL1        0.0815
     25 C          62.6242   80.3310   12.7833 C.3     1  UNL1        0.0540
     26 N          64.5022   82.0371   11.9421 N.ar    1  UNL1       -0.1760
     27 N          64.6305   83.5306   11.8873 N.ar    1  UNL1       -0.2631
     28 H          65.4032   84.0327   11.5407 H       1  UNL1        0.1903
     29 C          60.1780   88.4827    8.2058 C.1     1  UNL1        0.1029
     30 N          59.4535   89.2063    7.1098 N.1     1  UNL1       -0.1907
@<TRIPOS>BOND
     1    13    14    1
     2    14    15   ar
     3    15    16   ar
     4    16    17   ar
     5    17    12    1
     6    12    11    1
     7    11    10    1
     8    10     8    1
     9     8     1    1
    10     1     2   ar
    11     2     3   ar
    12     3    20    1
    13    20    22    1
    14    22    23   ar
    15    23    24   ar
    16    24    25    1
    17    24    26   ar
    18    26    27   ar
    19     3     4   ar
    20     4     5   ar
    21     5     6    1
    22     5     7   ar
    23     7    29    1
    24    29    30    3
    25    17    18   ar
    26    18    19   ar
    27    19    14   ar
    28     7     1   ar
    29    27    22   ar
    30     8     9    1
    31    20    21    1
    32    27    28    1
