@<TRIPOS>MOLECULE
*****
 37 41 0 0 0
SMALL
GASTEIGER

@<TRIPOS>ATOM
      1 C          63.9461   89.3819   15.4866 C.ar    1  UNL1        0.0842
      2 N          63.4243   89.9849   16.7571 N.ar    1  UNL1       -0.2437
      3 C          62.8239   89.1053   17.8133 C.ar    1  UNL1        0.0988
      4 C          62.7452   87.6228   17.5992 C.ar    1  UNL1        0.0207
      5 C          63.2670   87.0198   16.3287 C.ar    1  UNL1        0.0043
      6 C          63.1883   85.5372   16.1145 C.ar    1  UNL1        0.0203
      7 C          63.7101   84.9342   14.8441 C.ar    1  UNL1        0.1252
      8 C          64.3106   85.8138   13.7877 C.ar    1  UNL1        0.0202
      9 C          64.3893   87.2964   14.0019 C.ar    1  UNL1        0.0029
     10 C          63.8674   87.8993   15.2724 C.ar    1  UNL1        0.0179
     11 C          63.7923   90.5328   13.1624 C.ar    1  UNL1        0.1401
     12 C          64.3928   91.4123   12.1061 C.ar    1  UNL1        0.0378
     13 C          65.7476   92.0205   12.3176 C.ar    1  UNL1        0.0137
     14 C          66.5019   91.7492   13.5854 C.ar    1  UNL1        0.0579
     15 CL         67.8566   92.3574   13.7969 Cl      1  UNL1       -0.0822
     16 C          65.9014   90.8696   14.6418 C.ar    1  UNL1        0.0159
     17 C          64.5466   90.2615   14.4303 C.ar    1  UNL1        0.0524
     18 C          66.3480   92.9001   11.2612 C.ar    1  UNL1        0.0031
     19 C          66.0080   94.3604   11.2189 C.ar    1  UNL1        0.0002
     20 C          66.6084   95.2400   10.1625 C.ar    1  UNL1        0.0023
     21 C          67.5489   94.6592    9.1485 C.ar    1  UNL1        0.0296
     22 C          67.8889   93.1988    9.1909 C.ar    1  UNL1        0.1401
     23 F          68.8294   92.6180    8.1769 F       1  UNL1       -0.2042
     24 C          67.2885   92.3193   10.2472 C.ar    1  UNL1        0.0297
     25 C          62.1214   89.2275   11.6609 C.3     1  UNL1        0.2525
     26 O          62.4375   89.9246   12.9509 O.3     1  UNL1       -0.4714
     27 S          63.6314   83.4517   14.6299 S.O2    1  UNL1        0.0747
     28 O          65.1253   83.3899   14.5088 O.2     1  UNL1       -0.1499
     29 O          62.1376   83.5135   14.7510 O.2     1  UNL1       -0.1499
     30 N          63.5528   81.9692   14.4157 N.pl3   1  UNL1       -0.1975
     31 H          63.6169   81.3567   15.1839 H       1  UNL1        0.1753
     32 C          63.3764   81.4197   13.0311 C.ar    1  UNL1        0.1688
     33 C          63.7504   82.2521   11.8407 C.ar    1  UNL1        0.0390
     34 C          63.5740   81.7027   10.4561 C.ar    1  UNL1        0.0255
     35 C          63.0236   80.3209   10.2620 C.ar    1  UNL1        0.1223
     36 N          62.6495   79.4885   11.4524 N.ar    1  UNL1       -0.1452
     37 N          62.8260   80.0379   12.8370 N.ar    1  UNL1       -0.1316
@<TRIPOS>BOND
     1    25    26    1
     2    26    11    1
     3    11    12   ar
     4    12    13   ar
     5    13    18    1
     6    18    19   ar
     7    19    20   ar
     8    20    21   ar
     9    21    22   ar
    10    22    23    1
    11    22    24   ar
    12    13    14   ar
    13    14    15    1
    14    14    16   ar
    15    16    17   ar
    16    17     1    1
    17     1     2   ar
    18     2     3   ar
    19     3     4   ar
    20     4     5   ar
    21     5     6   ar
    22     6     7   ar
    23     7    27    1
    24    27    28    2
    25    27    29    2
    26    27    30    1
    27    30    32    1
    28    32    33   ar
    29    33    34   ar
    30    34    35   ar
    31    35    36   ar
    32    36    37   ar
    33     7     8   ar
    34     8     9   ar
    35     9    10   ar
    36    17    11   ar
    37    10     1   ar
    38    24    18   ar
    39    10     5   ar
    40    37    32   ar
    41    30    31    1
@<TRIPOS>MOLECULE
*****
 37 41 0 0 0
SMALL
GASTEIGER

@<TRIPOS>ATOM
      1 C          64.1503   90.3081   15.1653 C.ar    1  UNL1        0.0842
      2 N          63.6489   91.0930   16.3410 N.ar    1  UNL1       -0.2437
      3 C          63.0304   90.3825   17.5083 C.ar    1  UNL1        0.0988
      4 C          62.9135   88.8871   17.4999 C.ar    1  UNL1        0.0207
      5 C          63.4149   88.1022   16.3242 C.ar    1  UNL1        0.0043
      6 C          63.2980   86.6067   16.3158 C.ar    1  UNL1        0.0203
      7 C          63.7994   85.8218   15.1401 C.ar    1  UNL1        0.1252
      8 C          64.4179   86.5323   13.9727 C.ar    1  UNL1        0.0202
      9 C          64.5349   88.0277   13.9811 C.ar    1  UNL1        0.0029
     10 C          64.0334   88.8126   15.1569 C.ar    1  UNL1        0.0179
     11 C          66.1262   91.6424   14.1330 C.ar    1  UNL1        0.1401
     12 C          66.7447   92.3528   12.9656 C.ar    1  UNL1        0.0378
     13 C          66.0057   92.4395   11.6631 C.ar    1  UNL1        0.0137
     14 C          64.6483   91.8157   11.5280 C.ar    1  UNL1        0.0579
     15 CL         63.9093   91.9023   10.2256 Cl      1  UNL1       -0.0822
     16 C          64.0298   91.1052   12.6954 C.ar    1  UNL1        0.0159
     17 C          64.7688   91.0185   13.9979 C.ar    1  UNL1        0.0524
     18 C          66.6242   93.1500   10.4958 C.ar    1  UNL1        0.0031
     19 C          67.7103   92.4853    9.7031 C.ar    1  UNL1        0.0002
     20 C          68.3289   93.1958    8.5357 C.ar    1  UNL1        0.0023
     21 C          67.8612   94.5709    8.1611 C.ar    1  UNL1        0.0296
     22 C          66.7749   95.2355    8.9538 C.ar    1  UNL1        0.1401
     23 F          66.3072   96.6106    8.5792 F       1  UNL1       -0.2042
     24 C          66.1565   94.5251   10.1212 C.ar    1  UNL1        0.0297
     25 C          67.5880   92.7569   15.9691 C.3     1  UNL1        0.2525
     26 O          66.8652   91.5557   15.4355 O.3     1  UNL1       -0.4714
     27 S          63.6825   84.3264   15.1317 S.O2    1  UNL1        0.0747
     28 O          65.1453   84.2138   14.8193 O.2     1  UNL1       -0.1499
     29 O          62.2197   84.4391   15.4441 O.2     1  UNL1       -0.1499
     30 N          63.5655   82.8310   15.1233 N.pl3   1  UNL1       -0.1975
     31 H          63.6558   82.3255   15.9632 H       1  UNL1        0.1753
     32 C          63.3109   82.1059   13.8351 C.ar    1  UNL1        0.1688
     33 C          63.4809   82.8193   12.5266 C.ar    1  UNL1        0.0390
     34 C          63.2263   82.0942   11.2384 C.ar    1  UNL1        0.0255
     35 C          62.8018   80.6556   11.2587 C.ar    1  UNL1        0.1223
     36 N          62.6318   79.9422   12.5672 N.ar    1  UNL1       -0.1452
     37 N          62.8864   80.6674   13.8554 N.ar    1  UNL1       -0.1316
@<TRIPOS>BOND
     1    25    26    1
     2    26    11    1
     3    11    12   ar
     4    12    13   ar
     5    13    18    1
     6    18    19   ar
     7    19    20   ar
     8    20    21   ar
     9    21    22   ar
    10    22    23    1
    11    22    24   ar
    12    13    14   ar
    13    14    15    1
    14    14    16   ar
    15    16    17   ar
    16    17     1    1
    17     1     2   ar
    18     2     3   ar
    19     3     4   ar
    20     4     5   ar
    21     5     6   ar
    22     6     7   ar
    23     7    27    1
    24    27    28    2
    25    27    29    2
    26    27    30    1
    27    30    32    1
    28    32    33   ar
    29    33    34   ar
    30    34    35   ar
    31    35    36   ar
    32    36    37   ar
    33     7     8   ar
    34     8     9   ar
    35     9    10   ar
    36    17    11   ar
    37    10     1   ar
    38    24    18   ar
    39    10     5   ar
    40    37    32   ar
    41    30    31    1
