@<TRIPOS>MOLECULE
*****
 35 38 0 0 0
SMALL
GASTEIGER

@<TRIPOS>ATOM
      1 C          62.7504   90.0031   12.7473 C.ar    1  UNL1        0.2019
      2 N          61.7950   90.0689   11.5928 N.ar    1  UNL1       -0.2135
      3 C          61.7586   88.7171   10.9436 C.ar    1  UNL1        0.1001
      4 C          60.9965   88.1905    9.7639 C.ar    1  UNL1        0.0252
      5 C          61.1674   86.7626    9.3374 C.ar    1  UNL1        0.0547
      6 C          62.1003   85.8614   10.0907 C.ar    1  UNL1        0.0061
      7 C          62.8624   86.3880   11.2704 C.ar    1  UNL1        0.0189
      8 C          62.6916   87.8159   11.6969 C.ar    1  UNL1        0.0802
      9 N          63.3045   88.6107   12.8116 N.ar    1  UNL1       -0.2953
     10 C          60.4052   86.2358    8.1577 C.2     1  UNL1        0.2428
     11 N          58.9432   86.5384    8.0135 N.am    1  UNL1       -0.3253
     12 O          61.1052   85.4065    7.1222 O.2     1  UNL1       -0.2704
     13 H          58.4838   87.0827    8.6931 H       1  UNL1        0.1453
     14 H          58.4430   86.1927    7.2392 H       1  UNL1        0.1453
     15 N          63.0918   91.1316   13.6746 N.pl3   1  UNL1       -0.2839
     16 H          62.3744   91.6277   14.1313 H       1  UNL1        0.1550
     17 C          67.3949   92.2496   14.3697 C.ar    1  UNL1        0.0253
     18 C          66.5127   91.9036   15.5324 C.ar    1  UNL1        0.0074
     19 C          65.0783   91.5310   15.3008 C.ar    1  UNL1        0.0152
     20 C          64.5261   91.5042   13.9063 C.ar    1  UNL1        0.0504
     21 C          65.4084   91.8502   12.7435 C.ar    1  UNL1        0.0152
     22 C          66.8428   92.2229   12.9753 C.ar    1  UNL1        0.0074
     23 C          69.1935   93.5345   15.7350 C.3     1  UNL1        0.0742
     24 S          68.8294   92.6222   14.6014 S.3     1  UNL1       -0.1127
     25 C          64.2973   88.1023   13.8145 C.3     1  UNL1        0.1354
     26 C          63.8259   87.5881   15.1424 C.ar    1  UNL1        0.0044
     27 C          63.3181   88.5452   16.1799 C.ar    1  UNL1       -0.0024
     28 C          62.8466   88.0311   17.5078 C.ar    1  UNL1       -0.0003
     29 C          62.8828   86.5598   17.7982 C.ar    1  UNL1       -0.0001
     30 C          63.3905   85.6029   16.7608 C.ar    1  UNL1        0.0036
     31 C          63.8620   86.1170   15.4329 C.ar    1  UNL1        0.0693
     32 C          64.3698   85.1599   14.3954 C.3     1  UNL1        0.4183
     33 F          64.8774   84.2028   13.3580 F       1  UNL1       -0.1659
     34 F          65.7812   85.4996   14.7729 F       1  UNL1       -0.1659
     35 F          62.9583   84.8203   14.0180 F       1  UNL1       -0.1659
@<TRIPOS>BOND
     1    23    24    1
     2    24    17    1
     3    17    18   ar
     4    18    19   ar
     5    19    20   ar
     6    20    15    1
     7    15     1    1
     8     1     2   ar
     9     2     3   ar
    10     3     4   ar
    11     4     5   ar
    12     5    10    1
    13    10    11   am
    14    10    12    2
    15     5     6   ar
    16     6     7   ar
    17     7     8   ar
    18     8     9   ar
    19     9    25    1
    20    25    26    1
    21    26    27   ar
    22    27    28   ar
    23    28    29   ar
    24    29    30   ar
    25    30    31   ar
    26    31    32    1
    27    32    33    1
    28    32    34    1
    29    32    35    1
    30    20    21   ar
    31    21    22   ar
    32    22    17   ar
    33     9     1   ar
    34    31    26   ar
    35     8     3   ar
    36    15    16    1
    37    11    13    1
    38    11    14    1
@<TRIPOS>MOLECULE
*****
 35 38 0 0 0
SMALL
GASTEIGER

@<TRIPOS>ATOM
      1 C          64.3032   90.5381   14.5055 C.ar    1  UNL1        0.2019
      2 N          65.6858   91.0988   14.3508 N.ar    1  UNL1       -0.2135
      3 C          65.7926   91.6972   12.9795 C.ar    1  UNL1        0.1001
      4 C          66.9187   92.3912   12.2722 C.ar    1  UNL1        0.0252
      5 C          66.7280   92.8945   10.8721 C.ar    1  UNL1        0.0547
      6 C          65.4113   92.7037   10.1793 C.ar    1  UNL1        0.0061
      7 C          64.2853   92.0097   10.8866 C.ar    1  UNL1        0.0189
      8 C          64.4759   91.5065   12.2867 C.ar    1  UNL1        0.0802
      9 N          63.5554   90.7901   13.2299 N.ar    1  UNL1       -0.2953
     10 C          67.8541   93.5885   10.1647 C.2     1  UNL1        0.2428
     11 N          69.1085   92.8359    9.8328 N.am    1  UNL1       -0.3253
     12 O          67.7257   95.0350    9.7891 O.2     1  UNL1       -0.2704
     13 H          69.1928   91.8865   10.0793 H       1  UNL1        0.1453
     14 H          69.8476   93.2914    9.3686 H       1  UNL1        0.1453
     15 N          63.7631   89.8469   15.7223 N.pl3   1  UNL1       -0.2839
     16 H          63.4464   90.3765   16.4894 H       1  UNL1        0.1550
     17 C          63.5905   85.3525   15.8662 C.ar    1  UNL1        0.0253
     18 C          64.3162   86.0398   14.7477 C.ar    1  UNL1        0.0074
     19 C          64.3737   87.5379   14.6997 C.ar    1  UNL1        0.0152
     20 C          63.7055   88.3488   15.7703 C.ar    1  UNL1        0.0504
     21 C          62.9799   87.6616   16.8888 C.ar    1  UNL1        0.0152
     22 C          62.9224   86.1634   16.9368 C.ar    1  UNL1        0.0074
     23 C          63.1346   83.0796   14.6931 C.3     1  UNL1        0.0742
     24 S          63.5330   83.8543   15.9142 S.3     1  UNL1       -0.1127
     25 C          62.1363   90.3951   12.9469 C.3     1  UNL1        0.1354
     26 C          61.8474   89.2128   12.0703 C.ar    1  UNL1        0.0044
     27 C          62.8633   88.1184   11.9281 C.ar    1  UNL1       -0.0024
     28 C          62.5745   86.9361   11.0514 C.ar    1  UNL1       -0.0003
     29 C          61.2695   86.8481   10.3169 C.ar    1  UNL1       -0.0001
     30 C          60.2536   87.9424   10.4591 C.ar    1  UNL1        0.0036
     31 C          60.5425   89.1248   11.3358 C.ar    1  UNL1        0.0693
     32 C          59.5265   90.2191   11.4779 C.3     1  UNL1        0.4183
     33 F          58.5105   91.3134   11.6200 F       1  UNL1       -0.1659
     34 F          58.9656   89.5406   12.6924 F       1  UNL1       -0.1659
     35 F          60.0873   90.8976   10.2634 F       1  UNL1       -0.1659
@<TRIPOS>BOND
     1    23    24    1
     2    24    17    1
     3    17    18   ar
     4    18    19   ar
     5    19    20   ar
     6    20    15    1
     7    15     1    1
     8     1     2   ar
     9     2     3   ar
    10     3     4   ar
    11     4     5   ar
    12     5    10    1
    13    10    11   am
    14    10    12    2
    15     5     6   ar
    16     6     7   ar
    17     7     8   ar
    18     8     9   ar
    19     9    25    1
    20    25    26    1
    21    26    27   ar
    22    27    28   ar
    23    28    29   ar
    24    29    30   ar
    25    30    31   ar
    26    31    32    1
    27    32    33    1
    28    32    34    1
    29    32    35    1
    30    20    21   ar
    31    21    22   ar
    32    22    17   ar
    33     9     1   ar
    34    31    26   ar
    35     8     3   ar
    36    15    16    1
    37    11    13    1
    38    11    14    1
@<TRIPOS>MOLECULE
*****
 35 38 0 0 0
SMALL
GASTEIGER

@<TRIPOS>ATOM
      1 C          63.3329   89.8658   12.3688 C.ar    1  UNL1        0.2019
      2 N          62.3575   90.0887   11.2512 N.ar    1  UNL1       -0.2135
      3 C          61.9027   88.7469   10.7584 C.ar    1  UNL1        0.1001
      4 C          60.9461   88.3473    9.6744 C.ar    1  UNL1        0.0252
      5 C          60.6838   86.8955    9.4033 C.ar    1  UNL1        0.0547
      6 C          61.3780   85.8434   10.2163 C.ar    1  UNL1        0.0061
      7 C          62.3347   86.2430   11.3003 C.ar    1  UNL1        0.0189
      8 C          62.5970   87.6948   11.5714 C.ar    1  UNL1        0.0802
      9 N          63.4809   88.3863   12.5666 N.ar    1  UNL1       -0.2953
     10 C          59.7271   86.4958    8.3193 C.2     1  UNL1        0.2428
     11 N          60.1194   85.4458    7.3225 N.am    1  UNL1       -0.3253
     12 O          58.3783   87.1462    8.2320 O.2     1  UNL1       -0.2704
     13 H          61.0047   85.0190    7.3798 H       1  UNL1        0.1453
     14 H          59.4915   85.1835    6.6110 H       1  UNL1        0.1453
     15 N          64.0367   90.9347   13.1512 N.pl3   1  UNL1       -0.2839
     16 H          63.9980   90.9310   14.1349 H       1  UNL1        0.1550
     17 C          66.3250   94.1586   11.0018 C.ar    1  UNL1        0.0253
     18 C          66.3993   94.0555   12.4964 C.ar    1  UNL1        0.0074
     19 C          65.6365   92.9809   13.2129 C.ar    1  UNL1        0.0152
     20 C          64.7994   92.0093   12.4347 C.ar    1  UNL1        0.0504
     21 C          64.7252   92.1124   10.9401 C.ar    1  UNL1        0.0152
     22 C          65.4880   93.1871   10.2237 C.ar    1  UNL1        0.0074
     23 C          67.2746   95.1568    8.7990 C.3     1  UNL1        0.0742
     24 S          67.0879   95.2333   10.2854 S.3     1  UNL1       -0.1127
     25 C          64.3587   87.7159   13.5816 C.3     1  UNL1        0.1354
     26 C          63.8519   87.4819   14.9738 C.ar    1  UNL1        0.0044
     27 C          63.5171   88.6481   15.8560 C.ar    1  UNL1       -0.0024
     28 C          63.0104   88.4142   17.2483 C.ar    1  UNL1       -0.0003
     29 C          62.8383   87.0141   17.7584 C.ar    1  UNL1       -0.0001
     30 C          63.1731   85.8480   16.8763 C.ar    1  UNL1        0.0036
     31 C          63.6799   86.0819   15.4840 C.ar    1  UNL1        0.0693
     32 C          64.0146   84.9158   14.6020 C.3     1  UNL1        0.4183
     33 F          64.3493   83.7496   13.7199 F       1  UNL1       -0.1659
     34 F          65.4754   85.1434   14.8553 F       1  UNL1       -0.1659
     35 F          62.5538   84.6881   14.3486 F       1  UNL1       -0.1659
@<TRIPOS>BOND
     1    23    24    1
     2    24    17    1
     3    17    18   ar
     4    18    19   ar
     5    19    20   ar
     6    20    15    1
     7    15     1    1
     8     1     2   ar
     9     2     3   ar
    10     3     4   ar
    11     4     5   ar
    12     5    10    1
    13    10    11   am
    14    10    12    2
    15     5     6   ar
    16     6     7   ar
    17     7     8   ar
    18     8     9   ar
    19     9    25    1
    20    25    26    1
    21    26    27   ar
    22    27    28   ar
    23    28    29   ar
    24    29    30   ar
    25    30    31   ar
    26    31    32    1
    27    32    33    1
    28    32    34    1
    29    32    35    1
    30    20    21   ar
    31    21    22   ar
    32    22    17   ar
    33     9     1   ar
    34    31    26   ar
    35     8     3   ar
    36    15    16    1
    37    11    13    1
    38    11    14    1
@<TRIPOS>MOLECULE
*****
 35 38 0 0 0
SMALL
GASTEIGER

@<TRIPOS>ATOM
      1 C          62.1913   88.6149   11.5708 C.ar    1  UNL1        0.2019
      2 N          61.9373   89.7727   10.6516 N.ar    1  UNL1       -0.2135
      3 C          61.0617   89.2925    9.5322 C.ar    1  UNL1        0.1001
      4 C          60.4888   89.9919    8.3353 C.ar    1  UNL1        0.0252
      5 C          59.6288   89.2367    7.3658 C.ar    1  UNL1        0.0547
      6 C          59.3418   87.7821    7.5932 C.ar    1  UNL1        0.0061
      7 C          59.9147   87.0827    8.7901 C.ar    1  UNL1        0.0189
      8 C          60.7747   87.8379    9.7596 C.ar    1  UNL1        0.0802
      9 N          61.4728   87.4192   11.0195 N.ar    1  UNL1       -0.2953
     10 C          59.0559   89.9360    6.1689 C.2     1  UNL1        0.2428
     11 N          57.5696   90.0761    6.0223 N.am    1  UNL1       -0.3253
     12 O          59.9691   90.4952    5.1185 O.2     1  UNL1       -0.2704
     13 H          56.9702   89.7091    6.7117 H       1  UNL1        0.1453
     14 H          57.1936   90.5351    5.2367 H       1  UNL1        0.1453
     15 N          63.0186   88.6472   12.8216 N.pl3   1  UNL1       -0.2839
     16 H          62.9778   87.8973   13.4582 H       1  UNL1        0.1550
     17 C          65.6869   92.1714   13.6642 C.ar    1  UNL1        0.0253
     18 C          65.5891   91.0506   14.6563 C.ar    1  UNL1        0.0074
     19 C          64.6997   89.8759   14.3754 C.ar    1  UNL1        0.0152
     20 C          63.9080   89.8219   13.1024 C.ar    1  UNL1        0.0504
     21 C          64.0058   90.9427   12.1104 C.ar    1  UNL1        0.0152
     22 C          64.8952   92.1175   12.3913 C.ar    1  UNL1        0.0074
     23 C          67.4399   93.3568   15.1715 C.3     1  UNL1        0.0742
     24 S          66.5763   93.3462   13.9451 S.3     1  UNL1       -0.1127
     25 C          61.4554   86.0457   11.6223 C.3     1  UNL1        0.1354
     26 C          62.4919   85.0379   11.2224 C.ar    1  UNL1        0.0044
     27 C          62.7961   84.8103    9.7713 C.ar    1  UNL1       -0.0024
     28 C          63.8326   83.8025    9.3713 C.ar    1  UNL1       -0.0003
     29 C          64.5650   83.0223   10.4225 C.ar    1  UNL1       -0.0001
     30 C          64.2608   83.2499   11.8736 C.ar    1  UNL1        0.0036
     31 C          63.2243   84.2577   12.2735 C.ar    1  UNL1        0.0693
     32 C          62.9202   84.4853   13.7246 C.3     1  UNL1        0.4183
     33 F          62.6160   84.7128   15.1757 F       1  UNL1       -0.1659
     34 F          63.8187   85.6864   13.7246 F       1  UNL1       -0.1659
     35 F          62.0216   83.2842   13.7247 F       1  UNL1       -0.1659
@<TRIPOS>BOND
     1    23    24    1
     2    24    17    1
     3    17    18   ar
     4    18    19   ar
     5    19    20   ar
     6    20    15    1
     7    15     1    1
     8     1     2   ar
     9     2     3   ar
    10     3     4   ar
    11     4     5   ar
    12     5    10    1
    13    10    11   am
    14    10    12    2
    15     5     6   ar
    16     6     7   ar
    17     7     8   ar
    18     8     9   ar
    19     9    25    1
    20    25    26    1
    21    26    27   ar
    22    27    28   ar
    23    28    29   ar
    24    29    30   ar
    25    30    31   ar
    26    31    32    1
    27    32    33    1
    28    32    34    1
    29    32    35    1
    30    20    21   ar
    31    21    22   ar
    32    22    17   ar
    33     9     1   ar
    34    31    26   ar
    35     8     3   ar
    36    15    16    1
    37    11    13    1
    38    11    14    1
@<TRIPOS>MOLECULE
*****
 35 38 0 0 0
SMALL
GASTEIGER

@<TRIPOS>ATOM
      1 C          63.5739   89.2726   13.4033 C.ar    1  UNL1        0.2019
      2 N          64.0066   88.3208   14.4789 N.ar    1  UNL1       -0.2135
      3 C          63.7895   86.9241   13.9768 C.ar    1  UNL1        0.1001
      4 C          64.0348   85.5832   14.6026 C.ar    1  UNL1        0.0252
      5 C          63.7132   84.3307   13.8424 C.ar    1  UNL1        0.0547
      6 C          63.1464   84.4193   12.4564 C.ar    1  UNL1        0.0061
      7 C          62.9011   85.7602   11.8307 C.ar    1  UNL1        0.0189
      8 C          63.2227   87.0127   12.5909 C.ar    1  UNL1        0.0802
      9 N          63.0895   88.4641   12.2364 N.ar    1  UNL1       -0.2953
     10 C          63.9585   82.9897   14.4681 C.2     1  UNL1        0.2428
     11 N          64.5866   82.8998   15.8273 N.am    1  UNL1       -0.3253
     12 O          63.5755   81.7385   13.7347 O.2     1  UNL1       -0.2704
     13 H          64.8379   83.7210   16.3086 H       1  UNL1        0.1453
     14 H          64.7476   82.0197   16.2380 H       1  UNL1        0.1453
     15 N          63.6180   90.7699   13.4809 N.pl3   1  UNL1       -0.2839
     16 H          63.0248   91.2482   14.1044 H       1  UNL1        0.1550
     17 C          66.4614   93.0760   10.8642 C.ar    1  UNL1        0.0253
     18 C          65.1436   92.6150   10.3158 C.ar    1  UNL1        0.0074
     19 C          64.1958   91.8464   11.1880 C.ar    1  UNL1        0.0152
     20 C          64.5658   91.5386   12.6087 C.ar    1  UNL1        0.0504
     21 C          65.8837   91.9995   13.1572 C.ar    1  UNL1        0.0152
     22 C          66.8315   92.7682   12.2849 C.ar    1  UNL1        0.0074
     23 C          68.3368   93.1144    9.0665 C.3     1  UNL1        0.0742
     24 S          67.4093   93.8447    9.9919 S.3     1  UNL1       -0.1127
     25 C          62.5640   89.0110   10.9423 C.3     1  UNL1        0.1354
     26 C          61.6886   88.1615   10.0694 C.ar    1  UNL1        0.0044
     27 C          62.2972   87.0938    9.2093 C.ar    1  UNL1       -0.0024
     28 C          61.4219   86.2443    8.3363 C.ar    1  UNL1       -0.0003
     29 C          59.9378   86.4624    8.3235 C.ar    1  UNL1       -0.0001
     30 C          59.3293   87.5300    9.1836 C.ar    1  UNL1        0.0036
     31 C          60.2046   88.3796   10.0565 C.ar    1  UNL1        0.0693
     32 C          59.5959   89.4472   10.9166 C.3     1  UNL1        0.4183
     33 F          58.9872   90.5147   11.7767 F       1  UNL1       -0.1659
     34 F          59.8682   90.4636    9.8476 F       1  UNL1       -0.1659
     35 F          59.3236   88.4308   11.9855 F       1  UNL1       -0.1659
@<TRIPOS>BOND
     1    23    24    1
     2    24    17    1
     3    17    18   ar
     4    18    19   ar
     5    19    20   ar
     6    20    15    1
     7    15     1    1
     8     1     2   ar
     9     2     3   ar
    10     3     4   ar
    11     4     5   ar
    12     5    10    1
    13    10    11   am
    14    10    12    2
    15     5     6   ar
    16     6     7   ar
    17     7     8   ar
    18     8     9   ar
    19     9    25    1
    20    25    26    1
    21    26    27   ar
    22    27    28   ar
    23    28    29   ar
    24    29    30   ar
    25    30    31   ar
    26    31    32    1
    27    32    33    1
    28    32    34    1
    29    32    35    1
    30    20    21   ar
    31    21    22   ar
    32    22    17   ar
    33     9     1   ar
    34    31    26   ar
    35     8     3   ar
    36    15    16    1
    37    11    13    1
    38    11    14    1
@<TRIPOS>MOLECULE
*****
 35 38 0 0 0
SMALL
GASTEIGER

@<TRIPOS>ATOM
      1 C          63.4598   89.2206   13.0293 C.ar    1  UNL1        0.2019
      2 N          63.8053   88.3577   14.2066 N.ar    1  UNL1       -0.2135
      3 C          63.6110   86.9257   13.8045 C.ar    1  UNL1        0.1001
      4 C          63.7979   85.6390   14.5525 C.ar    1  UNL1        0.0252
      5 C          63.5192   84.3302   13.8747 C.ar    1  UNL1        0.0547
      6 C          63.0536   84.3082   12.4490 C.ar    1  UNL1        0.0061
      7 C          62.8667   85.5948   11.7010 C.ar    1  UNL1        0.0189
      8 C          63.1454   86.9036   12.3788 C.ar    1  UNL1        0.0802
      9 N          63.0519   88.3220   11.8997 N.ar    1  UNL1       -0.2953
     10 C          63.7061   83.0435   14.6227 C.2     1  UNL1        0.2428
     11 N          64.7094   82.9613   15.7347 N.am    1  UNL1       -0.3253
     12 O          62.8897   81.8390   14.2586 O.2     1  UNL1       -0.2704
     13 H          65.2453   83.7519   15.9736 H       1  UNL1        0.1453
     14 H          64.8321   82.1168   16.2256 H       1  UNL1        0.1453
     15 N          63.5128   90.7192   12.9888 N.pl3   1  UNL1       -0.2839
     16 H          62.8020   91.2247   12.5323 H       1  UNL1        0.1550
     17 C          66.9208   92.9040   14.9539 C.ar    1  UNL1        0.0253
     18 C          66.8090   92.8790   13.4582 C.ar    1  UNL1        0.0074
     19 C          65.6730   92.1507   12.8032 C.ar    1  UNL1        0.0152
     20 C          64.6488   91.4474   13.6438 C.ar    1  UNL1        0.0504
     21 C          64.7607   91.4725   15.1394 C.ar    1  UNL1        0.0152
     22 C          65.8967   92.2008   15.7945 C.ar    1  UNL1        0.0074
     23 C          69.3050   92.8908   15.9862 C.3     1  UNL1        0.0742
     24 S          68.0569   93.6323   15.6089 S.3     1  UNL1       -0.1127
     25 C          62.6255   88.7640   10.5312 C.3     1  UNL1        0.1354
     26 C          61.6995   87.9065    9.7207 C.ar    1  UNL1        0.0044
     27 C          62.2514   86.7951    8.8779 C.ar    1  UNL1       -0.0024
     28 C          61.3254   85.9376    8.0673 C.ar    1  UNL1       -0.0003
     29 C          59.8474   86.1914    8.0995 C.ar    1  UNL1       -0.0001
     30 C          59.2954   87.3026    8.9423 C.ar    1  UNL1        0.0036
     31 C          60.2214   88.1602    9.7529 C.ar    1  UNL1        0.0693
     32 C          59.6694   89.2715   10.5956 C.3     1  UNL1        0.4183
     33 F          59.1173   90.3828   11.4383 F       1  UNL1       -0.1659
     34 F          59.5102   88.3208   11.7449 F       1  UNL1       -0.1659
     35 F          59.8285   90.2222    9.4463 F       1  UNL1       -0.1659
@<TRIPOS>BOND
     1    23    24    1
     2    24    17    1
     3    17    18   ar
     4    18    19   ar
     5    19    20   ar
     6    20    15    1
     7    15     1    1
     8     1     2   ar
     9     2     3   ar
    10     3     4   ar
    11     4     5   ar
    12     5    10    1
    13    10    11   am
    14    10    12    2
    15     5     6   ar
    16     6     7   ar
    17     7     8   ar
    18     8     9   ar
    19     9    25    1
    20    25    26    1
    21    26    27   ar
    22    27    28   ar
    23    28    29   ar
    24    29    30   ar
    25    30    31   ar
    26    31    32    1
    27    32    33    1
    28    32    34    1
    29    32    35    1
    30    20    21   ar
    31    21    22   ar
    32    22    17   ar
    33     9     1   ar
    34    31    26   ar
    35     8     3   ar
    36    15    16    1
    37    11    13    1
    38    11    14    1
@<TRIPOS>MOLECULE
*****
 35 38 0 0 0
SMALL
GASTEIGER

@<TRIPOS>ATOM
      1 C          63.0421   88.5788   12.0423 C.ar    1  UNL1        0.2019
      2 N          63.5627   87.8924   13.2703 N.ar    1  UNL1       -0.2135
      3 C          63.2752   86.4261   13.1389 C.ar    1  UNL1        0.1001
      4 C          63.5589   85.2628   14.0422 C.ar    1  UNL1        0.0252
      5 C          63.1445   83.8795   13.6363 C.ar    1  UNL1        0.0547
      6 C          62.4463   83.6596   12.3271 C.ar    1  UNL1        0.0061
      7 C          62.1625   84.8229   11.4237 C.ar    1  UNL1        0.0189
      8 C          62.5769   86.2062   11.8296 C.ar    1  UNL1        0.0802
      9 N          62.4329   87.5366   11.1519 N.ar    1  UNL1       -0.2953
     10 C          63.4283   82.7161   14.5397 C.2     1  UNL1        0.2428
     11 N          62.4945   81.5425   14.5669 N.am    1  UNL1       -0.3253
     12 O          64.6458   82.7263   15.4158 O.2     1  UNL1       -0.2704
     13 H          61.6955   81.5358   13.9919 H       1  UNL1        0.1453
     14 H          62.6808   80.7789   15.1598 H       1  UNL1        0.1453
     15 N          63.1176   90.0491   11.7551 N.pl3   1  UNL1       -0.2839
     16 H          62.5126   90.4527   11.0914 H       1  UNL1        0.1550
     17 C          66.1089   92.6153   13.9268 C.ar    1  UNL1        0.0253
     18 C          65.4094   91.5031   14.6505 C.ar    1  UNL1        0.0074
     19 C          64.4123   90.6477   13.9266 C.ar    1  UNL1        0.0152
     20 C          64.1147   90.9045   12.4789 C.ar    1  UNL1        0.0504
     21 C          64.8142   92.0167   11.7553 C.ar    1  UNL1        0.0152
     22 C          65.8113   92.8721   12.4793 C.ar    1  UNL1        0.0074
     23 C          67.5631   93.0881   16.0272 C.3     1  UNL1        0.0742
     24 S          67.1060   93.4707   14.6508 S.3     1  UNL1       -0.1127
     25 C          61.7922   87.7818    9.8180 C.3     1  UNL1        0.1354
     26 C          61.8197   86.7139    8.7651 C.ar    1  UNL1        0.0044
     27 C          62.9957   85.7877    8.6667 C.ar    1  UNL1       -0.0024
     28 C          63.0233   84.7198    7.6137 C.ar    1  UNL1       -0.0003
     29 C          61.8749   84.5779    6.6591 C.ar    1  UNL1       -0.0001
     30 C          60.6991   85.5040    6.7575 C.ar    1  UNL1        0.0036
     31 C          60.6715   86.5720    7.8104 C.ar    1  UNL1        0.0693
     32 C          59.4956   87.4980    7.9087 C.3     1  UNL1        0.4183
     33 F          58.3197   88.4241    8.0070 F       1  UNL1       -0.1659
     34 F          58.7642   86.4816    8.7346 F       1  UNL1       -0.1659
     35 F          60.2269   88.5144    7.0829 F       1  UNL1       -0.1659
@<TRIPOS>BOND
     1    23    24    1
     2    24    17    1
     3    17    18   ar
     4    18    19   ar
     5    19    20   ar
     6    20    15    1
     7    15     1    1
     8     1     2   ar
     9     2     3   ar
    10     3     4   ar
    11     4     5   ar
    12     5    10    1
    13    10    11   am
    14    10    12    2
    15     5     6   ar
    16     6     7   ar
    17     7     8   ar
    18     8     9   ar
    19     9    25    1
    20    25    26    1
    21    26    27   ar
    22    27    28   ar
    23    28    29   ar
    24    29    30   ar
    25    30    31   ar
    26    31    32    1
    27    32    33    1
    28    32    34    1
    29    32    35    1
    30    20    21   ar
    31    21    22   ar
    32    22    17   ar
    33     9     1   ar
    34    31    26   ar
    35     8     3   ar
    36    15    16    1
    37    11    13    1
    38    11    14    1
@<TRIPOS>MOLECULE
*****
 35 38 0 0 0
SMALL
GASTEIGER

@<TRIPOS>ATOM
      1 C          63.0043   88.3218   12.6076 C.ar    1  UNL1        0.2019
      2 N          63.7735   88.5821   13.8688 N.ar    1  UNL1       -0.2135
      3 C          64.4713   89.9018   13.7222 C.ar    1  UNL1        0.1001
      4 C          65.3707   90.6695   14.6450 C.ar    1  UNL1        0.0252
      5 C          65.9322   91.9926   14.2160 C.ar    1  UNL1        0.0547
      6 C          65.5943   92.5479   12.8641 C.ar    1  UNL1        0.0061
      7 C          64.6949   91.7802   11.9414 C.ar    1  UNL1        0.0189
      8 C          64.1334   90.4571   12.3704 C.ar    1  UNL1        0.0802
      9 N          63.2268   89.4806   11.6816 N.ar    1  UNL1       -0.2953
     10 C          66.8317   92.7604   15.1388 C.2     1  UNL1        0.2428
     11 N          66.3849   93.0683   16.5372 N.am    1  UNL1       -0.3253
     12 O          68.1779   93.2203   14.6631 O.2     1  UNL1       -0.2704
     13 H          65.5014   92.7664   16.8494 H       1  UNL1        0.1453
     14 H          66.9752   93.5722   17.1429 H       1  UNL1        0.1453
     15 N          62.1608   87.1146   12.3226 N.pl3   1  UNL1       -0.2839
     16 H          61.2308   87.2245   12.0187 H       1  UNL1        0.1550
     17 C          63.8810   82.9908   12.8563 C.ar    1  UNL1        0.0253
     18 C          64.2186   84.0766   13.8345 C.ar    1  UNL1        0.0074
     19 C          63.6453   85.4512   13.6566 C.ar    1  UNL1        0.0152
     20 C          62.7342   85.7400   12.5005 C.ar    1  UNL1        0.0504
     21 C          62.3965   84.6541   11.5222 C.ar    1  UNL1        0.0152
     22 C          62.9700   83.2795   11.7002 C.ar    1  UNL1        0.0074
     23 C          63.6491   80.5500   13.7160 C.3     1  UNL1        0.0742
     24 S          64.4544   81.6161   13.0342 S.3     1  UNL1       -0.1127
     25 C          62.6448   89.6357   10.3078 C.3     1  UNL1        0.1354
     26 C          61.7877   88.5492    9.7293 C.ar    1  UNL1        0.0044
     27 C          62.4205   87.4112    8.9844 C.ar    1  UNL1       -0.0024
     28 C          61.5634   86.3247    8.4058 C.ar    1  UNL1       -0.0003
     29 C          60.0735   86.3761    8.5720 C.ar    1  UNL1       -0.0001
     30 C          59.4408   87.5140    9.3168 C.ar    1  UNL1        0.0036
     31 C          60.2978   88.6005    9.8954 C.ar    1  UNL1        0.0693
     32 C          59.6649   89.7384   10.6402 C.3     1  UNL1        0.4183
     33 F          59.0321   90.8763   11.3849 F       1  UNL1       -0.1659
     34 F          59.5046   88.8602   11.8456 F       1  UNL1       -0.1659
     35 F          59.8253   90.6166    9.4348 F       1  UNL1       -0.1659
@<TRIPOS>BOND
     1    23    24    1
     2    24    17    1
     3    17    18   ar
     4    18    19   ar
     5    19    20   ar
     6    20    15    1
     7    15     1    1
     8     1     2   ar
     9     2     3   ar
    10     3     4   ar
    11     4     5   ar
    12     5    10    1
    13    10    11   am
    14    10    12    2
    15     5     6   ar
    16     6     7   ar
    17     7     8   ar
    18     8     9   ar
    19     9    25    1
    20    25    26    1
    21    26    27   ar
    22    27    28   ar
    23    28    29   ar
    24    29    30   ar
    25    30    31   ar
    26    31    32    1
    27    32    33    1
    28    32    34    1
    29    32    35    1
    30    20    21   ar
    31    21    22   ar
    32    22    17   ar
    33     9     1   ar
    34    31    26   ar
    35     8     3   ar
    36    15    16    1
    37    11    13    1
    38    11    14    1
@<TRIPOS>MOLECULE
*****
 35 38 0 0 0
SMALL
GASTEIGER

@<TRIPOS>ATOM
      1 C          62.5806   88.9321   13.3201 C.ar    1  UNL1        0.2019
      2 N          61.6049   89.6744   12.4558 N.ar    1  UNL1       -0.2135
      3 C          61.3497   88.8485   11.2299 C.ar    1  UNL1        0.1001
      4 C          60.4783   89.0753   10.0303 C.ar    1  UNL1        0.0252
      5 C          60.4248   88.0494    8.9374 C.ar    1  UNL1        0.0547
      6 C          61.2427   86.7966    9.0441 C.ar    1  UNL1        0.0061
      7 C          62.1142   86.5697   10.2436 C.ar    1  UNL1        0.0189
      8 C          62.1677   87.5957   11.3365 C.ar    1  UNL1        0.0802
      9 N          62.9284   87.6474   12.6283 N.ar    1  UNL1       -0.2953
     10 C          59.5533   88.2762    7.7377 C.2     1  UNL1        0.2428
     11 N          59.6546   89.5604    6.9692 N.am    1  UNL1       -0.3253
     12 O          58.5805   87.2189    7.3067 O.2     1  UNL1       -0.2704
     13 H          60.2931   90.2543    7.2521 H       1  UNL1        0.1453
     14 H          59.0826   89.7093    6.1818 H       1  UNL1        0.1453
     15 N          63.1146   89.3934   14.6437 N.pl3   1  UNL1       -0.2839
     16 H          62.7745   88.9955   15.4775 H       1  UNL1        0.1550
     17 C          66.2714   92.5964   14.8034 C.ar    1  UNL1        0.0253
     18 C          65.4301   92.3116   16.0122 C.ar    1  UNL1        0.0074
     19 C          64.3778   91.2440   15.9589 C.ar    1  UNL1        0.0152
     20 C          64.1669   90.4611   14.6969 C.ar    1  UNL1        0.0504
     21 C          65.0082   90.7459   13.4882 C.ar    1  UNL1        0.0152
     22 C          66.0605   91.8136   13.5415 C.ar    1  UNL1        0.0074
     23 C          68.5009   93.5118   15.7737 C.3     1  UNL1        0.0742
     24 S          67.3237   93.6641   14.8567 S.3     1  UNL1       -0.1127
     25 C          63.8713   86.5984   13.1388 C.3     1  UNL1        0.1354
     26 C          63.4014   85.1836   13.3037 C.ar    1  UNL1        0.0044
     27 C          63.1882   84.3186   12.0968 C.ar    1  UNL1       -0.0024
     28 C          62.7182   82.9037   12.2616 C.ar    1  UNL1       -0.0003
     29 C          62.4614   82.3537   13.6334 C.ar    1  UNL1       -0.0001
     30 C          62.6745   83.2187   14.8402 C.ar    1  UNL1        0.0036
     31 C          63.1445   84.6336   14.6753 C.ar    1  UNL1        0.0693
     32 C          63.3576   85.4985   15.8822 C.3     1  UNL1        0.4183
     33 F          63.5708   86.3633   17.0890 F       1  UNL1       -0.1659
     34 F          61.9134   85.3363   16.2535 F       1  UNL1       -0.1659
     35 F          64.8018   85.6606   15.5110 F       1  UNL1       -0.1659
@<TRIPOS>BOND
     1    23    24    1
     2    24    17    1
     3    17    18   ar
     4    18    19   ar
     5    19    20   ar
     6    20    15    1
     7    15     1    1
     8     1     2   ar
     9     2     3   ar
    10     3     4   ar
    11     4     5   ar
    12     5    10    1
    13    10    11   am
    14    10    12    2
    15     5     6   ar
    16     6     7   ar
    17     7     8   ar
    18     8     9   ar
    19     9    25    1
    20    25    26    1
    21    26    27   ar
    22    27    28   ar
    23    28    29   ar
    24    29    30   ar
    25    30    31   ar
    26    31    32    1
    27    32    33    1
    28    32    34    1
    29    32    35    1
    30    20    21   ar
    31    21    22   ar
    32    22    17   ar
    33     9     1   ar
    34    31    26   ar
    35     8     3   ar
    36    15    16    1
    37    11    13    1
    38    11    14    1
