@<TRIPOS>MOLECULE
*****
 45 50 0 0 0
SMALL
GASTEIGER

@<TRIPOS>ATOM
      1 C          62.8015   83.4999   11.8639 C.3     1  UNL1        0.1149
      2 C          63.1674   82.4176   12.8359 C.ar    1  UNL1        0.0883
      3 C          63.2832   80.9298   12.6845 C.ar    1  UNL1        0.1643
      4 N          63.6880   80.3590   14.0112 N.ar    1  UNL1       -0.2134
      5 C          63.8224   81.4941   14.9826 C.ar    1  UNL1        0.1833
      6 N          63.5006   82.7663   14.2562 N.ar    1  UNL1       -0.2854
      7 C          63.4680   84.1974   14.7045 C.ar    1  UNL1        0.1163
      8 C          63.8013   84.5461   16.1248 C.ar    1  UNL1        0.1221
      9 N          63.7687   85.9772   16.5731 N.ar    1  UNL1       -0.2104
     10 C          63.4028   87.0595   15.6012 C.ar    1  UNL1        0.2220
     11 N          63.0695   86.7108   14.1809 N.ar    1  UNL1       -0.1971
     12 C          63.1021   85.2797   13.7326 C.ar    1  UNL1        0.1526
     13 N          62.7688   84.9309   12.3122 N.pl3   1  UNL1       -0.2899
     14 C          62.4029   86.0132   11.3402 C.3     1  UNL1        0.0745
     15 C          63.0471   87.3639   11.4443 C.3     1  UNL1        0.0198
     16 C          62.6812   88.4463   10.4724 C.3     1  UNL1        0.0017
     17 C          61.6712   88.1779    9.3963 C.3     1  UNL1        0.0001
     18 C          61.0271   86.8272    9.2922 C.3     1  UNL1        0.0017
     19 C          61.3930   85.7449   10.2642 C.3     1  UNL1        0.0198
     20 C          63.5150   83.2722    9.3761 C.3     1  UNL1        0.0022
     21 C          62.4682   83.1511   10.4435 C.3     1  UNL1        0.0259
     22 C          63.0373   80.1496   11.4270 C.1     1  UNL1        0.1210
     23 N          62.7915   79.3696   10.1697 N.1     1  UNL1       -0.1892
     24 N          63.3702   88.4906   16.0496 N.pl3   1  UNL1       -0.2801
     25 H          62.9839   88.7236   16.9246 H       1  UNL1        0.1552
     26 C          63.9261   89.5666   15.1647 C.ar    1  UNL1        0.0872
     27 C          65.3377   90.0378   15.3531 C.ar    1  UNL1        0.0475
     28 C          65.8936   91.1139   14.4681 C.ar    1  UNL1        0.1459
     29 F          67.3052   91.5850   14.6565 F       1  UNL1       -0.2040
     30 C          65.0379   91.7188   13.3949 C.ar    1  UNL1        0.0838
     31 C          63.6264   91.2476   13.2065 C.ar    1  UNL1        0.0450
     32 C          63.0704   90.1716   14.0914 C.ar    1  UNL1        0.1523
     33 C          65.5939   92.7948   12.5100 C.2     1  UNL1        0.2481
     34 O          65.9986   94.1143   13.0975 O.2     1  UNL1       -0.2701
     35 N          65.7451   92.5514   11.0376 N.am    1  UNL1       -0.3023
     36 H          65.4794   91.6854   10.6520 H       1  UNL1        0.1497
     37 C          66.3010   93.6274   10.1527 C.3     1  UNL1        0.0746
     38 C          65.6486   94.9776   10.1133 C.3     1  UNL1        0.0369
     39 C          66.2045   96.0536    9.2284 C.3     1  UNL1        0.0738
     40 N          67.4129   95.7795    8.3829 N.3     1  UNL1       -0.2714
     41 C          67.9688   96.8556    7.4980 C.3     1  UNL1        0.0896
     42 C          68.0653   94.4294    8.4223 C.3     1  UNL1        0.0738
     43 C          67.5093   93.3533    9.3073 C.3     1  UNL1        0.0369
     44 O          61.6589   89.7004   13.9030 O.3     1  UNL1       -0.4702
     45 C          60.9272   90.0131   12.6314 C.3     1  UNL1        0.2525
@<TRIPOS>BOND
     1    20    21    1
     2     1    21    1
     3     1     2    1
     4     2     3   ar
     5     3    22    1
     6    22    23    3
     7     3     4   ar
     8     4     5   ar
     9     5     6   ar
    10     6     7    1
    11     7     8   ar
    12     8     9   ar
    13     9    10   ar
    14    10    24    1
    15    24    26    1
    16    26    27   ar
    17    27    28   ar
    18    28    29    1
    19    28    30   ar
    20    30    33    1
    21    33    34    2
    22    33    35   am
    23    35    37    1
    24    37    38    1
    25    38    39    1
    26    39    40    1
    27    40    41    1
    28    40    42    1
    29    42    43    1
    30    30    31   ar
    31    31    32   ar
    32    32    44    1
    33    44    45    1
    34    10    11   ar
    35    11    12   ar
    36    12    13    1
    37    13    14    1
    38    14    15    1
    39    15    16    1
    40    16    17    1
    41    17    18    1
    42    18    19    1
    43    13     1    1
    44    19    14    1
    45     6     2   ar
    46    12     7   ar
    47    32    26   ar
    48    43    37    1
    49    24    25    1
    50    35    36    1
@<TRIPOS>MOLECULE
*****
 45 50 0 0 0
SMALL
GASTEIGER

@<TRIPOS>ATOM
      1 C          62.5253   86.2746   10.3967 C.3     1  UNL1        0.1149
      2 C          62.5791   87.2176   11.5620 C.ar    1  UNL1        0.0883
      3 C          63.2575   87.1262   12.8967 C.ar    1  UNL1        0.1643
      4 N          62.9550   88.3830   13.6574 N.ar    1  UNL1       -0.2134
      5 C          62.0897   89.2513   12.7929 C.ar    1  UNL1        0.1833
      6 N          61.8574   88.5310   11.4979 N.ar    1  UNL1       -0.2854
      7 C          61.0819   88.9014   10.2684 C.ar    1  UNL1        0.1163
      8 C          60.3602   90.2148   10.2043 C.ar    1  UNL1        0.1221
      9 N          59.5847   90.5851    8.9749 N.ar    1  UNL1       -0.2104
     10 C          59.5309   89.6421    7.8097 C.ar    1  UNL1        0.2220
     11 N          60.2526   88.3287    7.8738 N.ar    1  UNL1       -0.1971
     12 C          61.0281   87.9584    9.1032 C.ar    1  UNL1        0.1526
     13 N          61.7498   86.6449    9.1673 N.pl3   1  UNL1       -0.2899
     14 C          61.6960   85.7019    8.0021 C.3     1  UNL1        0.0745
     15 C          60.3732   85.3197    7.4070 C.3     1  UNL1        0.0198
     16 C          60.3194   84.3767    6.2418 C.3     1  UNL1        0.0017
     17 C          61.5885   83.8159    5.6716 C.3     1  UNL1        0.0001
     18 C          62.9112   84.1981    6.2667 C.3     1  UNL1        0.0017
     19 C          62.9650   85.1411    7.4319 C.3     1  UNL1        0.0198
     20 C          62.6240   83.7970   11.1726 C.3     1  UNL1        0.0022
     21 C          63.2471   84.9611   10.4609 C.3     1  UNL1        0.0259
     22 C          64.0919   85.9791   13.3849 C.1     1  UNL1        0.1210
     23 N          64.9261   84.8322   13.8731 N.1     1  UNL1       -0.1892
     24 N          58.7554   90.0125    6.5803 N.pl3   1  UNL1       -0.2801
     25 H          57.8188   89.7248    6.4837 H       1  UNL1        0.1552
     26 C          59.4068   90.8213    5.4979 C.ar    1  UNL1        0.0872
     27 C          60.8410   90.5726    5.1358 C.ar    1  UNL1        0.0475
     28 C          61.4924   91.3815    4.0534 C.ar    1  UNL1        0.1459
     29 F          62.9266   91.1327    3.6913 F       1  UNL1       -0.2040
     30 C          60.7096   92.4390    3.3333 C.ar    1  UNL1        0.0838
     31 C          59.2754   92.6878    3.6954 C.ar    1  UNL1        0.0450
     32 C          58.6240   91.8790    4.7777 C.ar    1  UNL1        0.1523
     33 C          61.3610   93.2479    2.2510 C.2     1  UNL1        0.2481
     34 O          60.9537   94.6749    2.0328 O.2     1  UNL1       -0.2701
     35 N          62.4198   92.6296    1.3867 N.am    1  UNL1       -0.3023
     36 H          62.6871   91.6930    1.5298 H       1  UNL1        0.1497
     37 C          63.0712   93.4384    0.3044 C.3     1  UNL1        0.0746
     38 C          64.3147   94.2234    0.6000 C.3     1  UNL1        0.0369
     39 C          64.9661   95.0323   -0.4823 C.3     1  UNL1        0.0738
     40 N          64.3740   95.0561   -1.8603 N.3     1  UNL1       -0.2714
     41 C          65.0254   95.8649   -2.9426 C.3     1  UNL1        0.0896
     42 C          63.1305   94.2711   -2.1560 C.3     1  UNL1        0.0738
     43 C          62.4791   93.4622   -1.0736 C.3     1  UNL1        0.0369
     44 O          57.1898   92.1277    5.1398 O.3     1  UNL1       -0.4702
     45 C          56.1459   91.0996    4.8184 C.3     1  UNL1        0.2525
@<TRIPOS>BOND
     1    20    21    1
     2     1    21    1
     3     1     2    1
     4     2     3   ar
     5     3    22    1
     6    22    23    3
     7     3     4   ar
     8     4     5   ar
     9     5     6   ar
    10     6     7    1
    11     7     8   ar
    12     8     9   ar
    13     9    10   ar
    14    10    24    1
    15    24    26    1
    16    26    27   ar
    17    27    28   ar
    18    28    29    1
    19    28    30   ar
    20    30    33    1
    21    33    34    2
    22    33    35   am
    23    35    37    1
    24    37    38    1
    25    38    39    1
    26    39    40    1
    27    40    41    1
    28    40    42    1
    29    42    43    1
    30    30    31   ar
    31    31    32   ar
    32    32    44    1
    33    44    45    1
    34    10    11   ar
    35    11    12   ar
    36    12    13    1
    37    13    14    1
    38    14    15    1
    39    15    16    1
    40    16    17    1
    41    17    18    1
    42    18    19    1
    43    13     1    1
    44    19    14    1
    45     6     2   ar
    46    12     7   ar
    47    32    26   ar
    48    43    37    1
    49    24    25    1
    50    35    36    1
