@<TRIPOS>MOLECULE
*****
 32 36 0 0 0
SMALL
GASTEIGER

@<TRIPOS>ATOM
      1 C          61.2318   89.0334   10.9487 C.ar    1  UNL1        0.2490
      2 N          60.3686   89.7823    9.9771 N.ar    1  UNL1       -0.1863
      3 C          59.9369   89.1279    8.6983 C.ar    1  UNL1        0.2225
      4 N          60.3684   87.7246    8.3910 N.ar    1  UNL1       -0.1420
      5 N          61.2316   86.9757    9.3625 N.ar    1  UNL1       -0.2193
      6 C          61.8091   85.5916    9.3321 C.ar    1  UNL1        0.1371
      7 C          62.5977   85.3906   10.5922 C.ar    1  UNL1        0.1553
      8 C          62.5076   86.6504   11.4013 C.ar    1  UNL1        0.0359
      9 C          63.1491   86.8888   12.7361 C.3     1  UNL1        0.0360
     10 C          61.6633   87.6301   10.6414 C.ar    1  UNL1        0.1353
     11 O          61.6635   89.6877   12.2275 O.3     1  UNL1       -0.4328
     12 C          68.3668   92.7759   14.9018 C.3     1  UNL1        0.0521
     13 C          67.1529   92.3224   14.1463 C.2     1  UNL1        0.0591
     14 C          66.0610   91.4423   14.6785 C.2     1  UNL1        0.0182
     15 C          65.0511   91.2453   13.5870 C.2     1  UNL1        0.0455
     16 C          63.7660   90.4733   13.5361 C.2     1  UNL1        0.1752
     17 F          63.2983   89.7150   14.7429 F       1  UNL1       -0.2009
     18 C          62.9486   90.4597   12.2784 C.2     1  UNL1        0.1706
     19 C          63.4163   91.2180   11.0717 C.2     1  UNL1        0.0201
     20 C          64.7015   91.9899   11.1227 C.3     1  UNL1        0.0751
     21 C          65.5188   92.0036   12.3803 C.2     1  UNL1        0.0653
     22 N          66.8178   92.6692   12.7260 N.2     1  UNL1       -0.2536
     23 O          63.3452   84.1480   10.9757 O.3     1  UNL1       -0.4727
     24 C          62.6841   83.1094   11.8324 C.3     1  UNL1        0.2227
     25 C          63.2902   82.7275   13.1503 C.3     1  UNL1        0.1201
     26 N          63.3109   83.7139   14.2803 N.3     1  UNL1       -0.2674
     27 C          64.5201   84.4330   14.8007 C.3     1  UNL1        0.0748
     28 C          64.0827   85.3179   15.9302 C.3     1  UNL1        0.0480
     29 C          62.6032   85.1456   16.1077 C.3     1  UNL1        0.1278
     30 O          61.7504   85.8424   17.1262 O.3     1  UNL1       -0.3830
     31 C          62.1263   84.1543   15.0880 C.3     1  UNL1        0.1018
     32 H          62.3038   86.4310   17.6631 H       1  UNL1        0.2104
@<TRIPOS>BOND
     1    12    13    1
     2    13    14    2
     3    14    15    1
     4    15    16    2
     5    16    17    1
     6    16    18    1
     7    18    11    1
     8    11     1    1
     9     1     2   ar
    10     2     3   ar
    11     3     4   ar
    12     4     5   ar
    13     5     6   ar
    14     6     7   ar
    15     7    23    1
    16    23    24    1
    17    24    25    1
    18    25    26    1
    19    26    27    1
    20    27    28    1
    21    28    29    1
    22    29    30    1
    23    29    31    1
    24     7     8   ar
    25     8     9    1
    26     8    10   ar
    27    18    19    2
    28    19    20    1
    29    20    21    1
    30    21    22    2
    31    22    13    1
    32    21    15    1
    33    10     1   ar
    34    10     5   ar
    35    31    26    1
    36    30    32    1
@<TRIPOS>MOLECULE
*****
 32 36 0 0 0
SMALL
GASTEIGER

@<TRIPOS>ATOM
      1 C          62.5411   86.8638   11.8783 C.ar    1  UNL1        0.2490
      2 N          61.6871   86.2561   10.8053 N.ar    1  UNL1       -0.1863
      3 C          61.0450   87.1328    9.7713 C.ar    1  UNL1        0.2225
      4 N          61.2569   88.6172    9.8103 N.ar    1  UNL1       -0.1420
      5 N          62.1109   89.2249   10.8833 N.ar    1  UNL1       -0.2193
      6 C          62.4978   90.6446   11.1744 C.ar    1  UNL1        0.1371
      7 C          63.3790   90.6454   12.3882 C.ar    1  UNL1        0.1553
      8 C          63.5367   89.2261   12.8474 C.ar    1  UNL1        0.0359
      9 C          64.3376   88.7656   14.0291 C.3     1  UNL1        0.0360
     10 C          62.7530   88.3482   11.9173 C.ar    1  UNL1        0.1353
     11 O          63.1832   85.9871   12.9122 O.3     1  UNL1       -0.4328
     12 C          62.9290   78.6028   10.2606 C.3     1  UNL1        0.0521
     13 C          62.8828   79.8992   11.0139 C.2     1  UNL1        0.0591
     14 C          63.2533   81.2477   10.4715 C.2     1  UNL1        0.0182
     15 C          63.0575   82.2566   11.5642 C.2     1  UNL1        0.0455
     16 C          63.2632   83.7418   11.6076 C.2     1  UNL1        0.1752
     17 F          63.7547   84.4668   10.3899 F       1  UNL1       -0.2009
     18 C          62.9775   84.5020   12.8688 C.2     1  UNL1        0.1706
     19 C          62.4861   83.7769   14.0865 C.2     1  UNL1        0.0201
     20 C          62.2803   82.2917   14.0430 C.3     1  UNL1        0.0751
     21 C          62.5660   81.5316   12.7818 C.2     1  UNL1        0.0653
     22 N          62.4581   80.0746   12.4417 N.2     1  UNL1       -0.2536
     23 O          63.9944   91.8533   13.0303 O.3     1  UNL1       -0.4727
     24 C          65.4785   92.0617   12.9680 C.3     1  UNL1        0.2227
     25 C          66.0323   93.3915   12.5499 C.3     1  UNL1        0.1201
     26 N          66.7424   93.5286   11.2357 N.3     1  UNL1       -0.2674
     27 C          66.8538   94.7828   10.4204 C.3     1  UNL1        0.0748
     28 C          67.6460   94.4650    9.1869 C.3     1  UNL1        0.0480
     29 C          68.0241   93.0144    9.2399 C.3     1  UNL1        0.1278
     30 O          68.8208   92.2726    8.2078 O.3     1  UNL1       -0.3830
     31 C          67.4657   92.4357   10.5061 C.3     1  UNL1        0.1018
     32 H          69.0605   92.8774    7.4883 H       1  UNL1        0.2104
@<TRIPOS>BOND
     1    12    13    1
     2    13    14    2
     3    14    15    1
     4    15    16    2
     5    16    17    1
     6    16    18    1
     7    18    11    1
     8    11     1    1
     9     1     2   ar
    10     2     3   ar
    11     3     4   ar
    12     4     5   ar
    13     5     6   ar
    14     6     7   ar
    15     7    23    1
    16    23    24    1
    17    24    25    1
    18    25    26    1
    19    26    27    1
    20    27    28    1
    21    28    29    1
    22    29    30    1
    23    29    31    1
    24     7     8   ar
    25     8     9    1
    26     8    10   ar
    27    18    19    2
    28    19    20    1
    29    20    21    1
    30    21    22    2
    31    22    13    1
    32    21    15    1
    33    10     1   ar
    34    10     5   ar
    35    31    26    1
    36    30    32    1
@<TRIPOS>MOLECULE
*****
 32 36 0 0 0
SMALL
GASTEIGER

@<TRIPOS>ATOM
      1 C          61.6202   89.2935   11.5621 C.ar    1  UNL1        0.2490
      2 N          60.8644   90.4514   10.9807 N.ar    1  UNL1       -0.1863
      3 C          60.0980   90.2810    9.7026 C.ar    1  UNL1        0.2225
      4 N          60.0873   88.9527    9.0060 N.ar    1  UNL1       -0.1420
      5 N          60.8430   87.7948    9.5874 N.ar    1  UNL1       -0.2193
      6 C          61.0153   86.3769    9.1292 C.ar    1  UNL1        0.1371
      7 C          61.8882   85.6710   10.1240 C.ar    1  UNL1        0.1553
      8 C          62.2554   86.6527   11.1971 C.ar    1  UNL1        0.0359
      9 C          63.1173   86.3712   12.3921 C.3     1  UNL1        0.0360
     10 C          61.6095   87.9652   10.8655 C.ar    1  UNL1        0.1353
     11 O          62.3866   89.4640   12.8402 O.3     1  UNL1       -0.4328
     12 C          68.4329   93.6349   15.6097 C.3     1  UNL1        0.0521
     13 C          67.3286   92.9791   14.8348 C.2     1  UNL1        0.0591
     14 C          66.3773   91.9447   15.3592 C.2     1  UNL1        0.0182
     15 C          65.4424   91.5688   14.2479 C.2     1  UNL1        0.0455
     16 C          64.2993   90.5998   14.1824 C.2     1  UNL1        0.1752
     17 F          63.9258   89.7977   15.3936 F       1  UNL1       -0.2009
     18 C          63.5297   90.4330   12.9057 C.2     1  UNL1        0.1706
     19 C          63.9033   91.2352   11.6945 C.2     1  UNL1        0.0201
     20 C          65.0464   92.2042   11.7601 C.3     1  UNL1        0.0751
     21 C          65.8160   92.3710   13.0367 C.2     1  UNL1        0.0653
     22 N          66.9817   93.2426   13.3995 N.2     1  UNL1       -0.2536
     23 O          62.3184   84.2356   10.0575 O.3     1  UNL1       -0.4727
     24 C          63.7574   83.8947    9.8062 C.3     1  UNL1        0.2227
     25 C          64.4537   82.8916   10.6773 C.3     1  UNL1        0.1201
     26 N          63.7850   82.3864   11.9215 N.3     1  UNL1       -0.2674
     27 C          63.0116   81.1076   12.0496 C.3     1  UNL1        0.0748
     28 C          62.5210   81.0021   13.4632 C.3     1  UNL1        0.0480
     29 C          62.9913   82.2159   14.2087 C.3     1  UNL1        0.1278
     30 O          62.7268   82.5206   15.6534 O.3     1  UNL1       -0.3830
     31 C          63.7725   83.0713   13.2559 C.3     1  UNL1        0.1018
     32 H          62.1982   81.8066   16.0430 H       1  UNL1        0.2104
@<TRIPOS>BOND
     1    12    13    1
     2    13    14    2
     3    14    15    1
     4    15    16    2
     5    16    17    1
     6    16    18    1
     7    18    11    1
     8    11     1    1
     9     1     2   ar
    10     2     3   ar
    11     3     4   ar
    12     4     5   ar
    13     5     6   ar
    14     6     7   ar
    15     7    23    1
    16    23    24    1
    17    24    25    1
    18    25    26    1
    19    26    27    1
    20    27    28    1
    21    28    29    1
    22    29    30    1
    23    29    31    1
    24     7     8   ar
    25     8     9    1
    26     8    10   ar
    27    18    19    2
    28    19    20    1
    29    20    21    1
    30    21    22    2
    31    22    13    1
    32    21    15    1
    33    10     1   ar
    34    10     5   ar
    35    31    26    1
    36    30    32    1
@<TRIPOS>MOLECULE
*****
 32 36 0 0 0
SMALL
GASTEIGER

@<TRIPOS>ATOM
      1 C          62.6477   87.4738   11.8408 C.ar    1  UNL1        0.2490
      2 N          61.8436   87.0108   10.6623 N.ar    1  UNL1       -0.1863
      3 C          61.4252   87.9920    9.6077 C.ar    1  UNL1        0.2225
      4 N          61.8108   89.4362    9.7316 N.ar    1  UNL1       -0.1420
      5 N          62.6149   89.8992   10.9102 N.ar    1  UNL1       -0.2193
      6 C          63.1389   91.2497   11.2995 C.ar    1  UNL1        0.1371
      7 C          63.8811   91.1032   12.5948 C.ar    1  UNL1        0.1553
      8 C          63.8159   89.6621   13.0059 C.ar    1  UNL1        0.0359
      9 C          64.4261   89.0692   14.2412 C.3     1  UNL1        0.0360
     10 C          63.0333   88.9180   11.9648 C.ar    1  UNL1        0.1353
     11 O          63.0661   86.4926   12.8954 O.3     1  UNL1       -0.4328
     12 C          61.9706   78.7660   13.7454 C.3     1  UNL1        0.0521
     13 C          62.2813   80.1713   13.3230 C.2     1  UNL1        0.0591
     14 C          62.0590   81.4079   14.1425 C.2     1  UNL1        0.0182
     15 C          62.5091   82.5877   13.3329 C.2     1  UNL1        0.0455
     16 C          62.5280   84.0584   13.6271 C.2     1  UNL1        0.1752
     17 F          62.0275   84.5658   14.9470 F       1  UNL1       -0.2009
     18 C          63.0473   85.0219   12.6013 C.2     1  UNL1        0.1706
     19 C          63.5477   84.5145   11.2814 C.2     1  UNL1        0.0201
     20 C          63.5289   83.0437   10.9873 C.3     1  UNL1        0.0751
     21 C          63.0096   82.0803   12.0130 C.2     1  UNL1        0.0653
     22 N          62.8688   80.5870   12.0069 N.2     1  UNL1       -0.2536
     23 O          64.5680   92.2044   13.3468 O.3     1  UNL1       -0.4727
     24 C          65.9656   92.6059   12.9784 C.3     1  UNL1        0.2227
     25 C          66.2463   94.0039   12.5130 C.3     1  UNL1        0.1201
     26 N          66.7973   94.2402   11.1380 N.3     1  UNL1       -0.2674
     27 C          67.3162   93.1880   10.2033 C.3     1  UNL1        0.0748
     28 C          67.7658   93.8676    8.9439 C.3     1  UNL1        0.0480
     29 C          67.5247   95.3399    9.1003 C.3     1  UNL1        0.1278
     30 O          67.8288   96.3964    8.0798 O.3     1  UNL1       -0.3830
     31 C          66.9262   95.5701   10.4563 C.3     1  UNL1        0.1018
     32 H          68.2107   95.9826    7.2900 H       1  UNL1        0.2104
@<TRIPOS>BOND
     1    12    13    1
     2    13    14    2
     3    14    15    1
     4    15    16    2
     5    16    17    1
     6    16    18    1
     7    18    11    1
     8    11     1    1
     9     1     2   ar
    10     2     3   ar
    11     3     4   ar
    12     4     5   ar
    13     5     6   ar
    14     6     7   ar
    15     7    23    1
    16    23    24    1
    17    24    25    1
    18    25    26    1
    19    26    27    1
    20    27    28    1
    21    28    29    1
    22    29    30    1
    23    29    31    1
    24     7     8   ar
    25     8     9    1
    26     8    10   ar
    27    18    19    2
    28    19    20    1
    29    20    21    1
    30    21    22    2
    31    22    13    1
    32    21    15    1
    33    10     1   ar
    34    10     5   ar
    35    31    26    1
    36    30    32    1
@<TRIPOS>MOLECULE
*****
 32 36 0 0 0
SMALL
GASTEIGER

@<TRIPOS>ATOM
      1 C          62.0794   88.0572   11.8182 C.ar    1  UNL1        0.2490
      2 N          62.8976   86.9336   12.3820 N.ar    1  UNL1       -0.1863
      3 C          62.9416   85.6105   11.6768 C.ar    1  UNL1        0.2225
      4 N          62.1673   85.4109   10.4077 N.ar    1  UNL1       -0.1420
      5 N          61.3491   86.5346    9.8438 N.ar    1  UNL1       -0.2193
      6 C          60.4883   86.6331    8.6194 C.ar    1  UNL1        0.1371
      7 C          59.9123   88.0172    8.5679 C.ar    1  UNL1        0.1553
      8 C          60.4172   88.7740    9.7605 C.ar    1  UNL1        0.0359
      9 C          60.0912   90.1972   10.1042 C.3     1  UNL1        0.0360
     10 C          61.3052   87.8577   10.5491 C.ar    1  UNL1        0.1353
     11 O          62.0355   89.3803   12.5234 O.3     1  UNL1       -0.4328
     12 C          68.6271   92.8603   14.9859 C.3     1  UNL1        0.0521
     13 C          67.4058   92.3534   14.2778 C.2     1  UNL1        0.0591
     14 C          66.4307   91.3467   14.8123 C.2     1  UNL1        0.0182
     15 C          65.3674   91.1353   13.7757 C.2     1  UNL1        0.0455
     16 C          64.1508   90.2583   13.7500 C.2     1  UNL1        0.1752
     17 F          63.8329   89.3822   14.9254 F       1  UNL1       -0.2009
     18 C          63.2520   90.2574   12.5491 C.2     1  UNL1        0.1706
     19 C          63.5699   91.1335   11.3737 C.2     1  UNL1        0.0201
     20 C          64.7866   92.0105   11.3994 C.3     1  UNL1        0.0751
     21 C          65.6853   92.0114   12.6003 C.2     1  UNL1        0.0653
     22 N          66.9451   92.7642   12.9107 N.2     1  UNL1       -0.2536
     23 O          58.9929   88.5507    7.5096 O.3     1  UNL1       -0.4727
     24 C          59.5566   89.2622    6.3155 C.3     1  UNL1        0.2227
     25 C          58.9499   90.5553    5.8573 C.3     1  UNL1        0.1201
     26 N          59.6377   91.3758    4.8067 N.3     1  UNL1       -0.2674
     27 C          61.0886   91.2951    4.4347 C.3     1  UNL1        0.0748
     28 C          61.3430   92.2904    3.3417 C.3     1  UNL1        0.0480
     29 C          60.0492   92.9862    3.0382 C.3     1  UNL1        0.1278
     30 O          59.8452   94.0590    2.0098 O.3     1  UNL1       -0.3830
     31 C          58.9953   92.4209    3.9436 C.3     1  UNL1        0.1018
     32 H          60.6859   94.2410    1.5614 H       1  UNL1        0.2104
@<TRIPOS>BOND
     1    12    13    1
     2    13    14    2
     3    14    15    1
     4    15    16    2
     5    16    17    1
     6    16    18    1
     7    18    11    1
     8    11     1    1
     9     1     2   ar
    10     2     3   ar
    11     3     4   ar
    12     4     5   ar
    13     5     6   ar
    14     6     7   ar
    15     7    23    1
    16    23    24    1
    17    24    25    1
    18    25    26    1
    19    26    27    1
    20    27    28    1
    21    28    29    1
    22    29    30    1
    23    29    31    1
    24     7     8   ar
    25     8     9    1
    26     8    10   ar
    27    18    19    2
    28    19    20    1
    29    20    21    1
    30    21    22    2
    31    22    13    1
    32    21    15    1
    33    10     1   ar
    34    10     5   ar
    35    31    26    1
    36    30    32    1
@<TRIPOS>MOLECULE
*****
 32 36 0 0 0
SMALL
GASTEIGER

@<TRIPOS>ATOM
      1 C          61.5576   89.0268   11.4113 C.ar    1  UNL1        0.2490
      2 N          60.6706   89.7403   10.4345 N.ar    1  UNL1       -0.1863
      3 C          60.1693   89.0248    9.2153 C.ar    1  UNL1        0.2225
      4 N          60.5550   87.5957    8.9727 N.ar    1  UNL1       -0.1420
      5 N          61.4420   86.8821    9.9495 N.ar    1  UNL1       -0.2193
      6 C          61.9859   85.4845    9.9759 C.ar    1  UNL1        0.1371
      7 C          62.8234   85.3362   11.2114 C.ar    1  UNL1        0.1553
      8 C          62.7970   86.6423   11.9487 C.ar    1  UNL1        0.0359
      9 C          63.5008   86.9405   13.2393 C.3     1  UNL1        0.0360
     10 C          61.9433   87.5977   11.1688 C.ar    1  UNL1        0.1353
     11 O          62.0589   89.7424   12.6306 O.3     1  UNL1       -0.4328
     12 C          67.6392   94.5409    9.8998 C.3     1  UNL1        0.0521
     13 C          66.7366   93.6135   10.6583 C.2     1  UNL1        0.0591
     14 C          65.4425   93.0405   10.1613 C.2     1  UNL1        0.0182
     15 C          64.8758   92.1691   11.2428 C.2     1  UNL1        0.0455
     16 C          63.6222   91.3487   11.3169 C.2     1  UNL1        0.1752
     17 F          62.6784   91.3143   10.1516 F       1  UNL1       -0.2009
     18 C          63.3124   90.5627   12.5564 C.2     1  UNL1        0.1706
     19 C          64.2563   90.5972   13.7218 C.2     1  UNL1        0.0201
     20 C          65.5099   91.4176   13.6475 C.3     1  UNL1        0.0751
     21 C          65.8196   92.2035   12.4081 C.2     1  UNL1        0.0653
     22 N          66.9697   93.0962   12.0468 N.2     1  UNL1       -0.2536
     23 O          63.5582   84.0991   11.6354 O.3     1  UNL1       -0.4727
     24 C          64.4462   84.1313   12.8438 C.3     1  UNL1        0.2227
     25 C          64.1073   83.3005   14.0459 C.3     1  UNL1        0.1201
     26 N          63.1265   82.1720   13.9253 N.3     1  UNL1       -0.2674
     27 C          63.3834   80.8466   13.2717 C.3     1  UNL1        0.0748
     28 C          62.1323   80.0262   13.3796 C.3     1  UNL1        0.0480
     29 C          61.1021   80.8446   14.1000 C.3     1  UNL1        0.1278
     30 O          59.7031   80.4127   14.4259 O.3     1  UNL1       -0.3830
     31 C          61.7165   82.1708   14.4373 C.3     1  UNL1        0.1018
     32 H          59.5582   79.5115   14.0977 H       1  UNL1        0.2104
@<TRIPOS>BOND
     1    12    13    1
     2    13    14    2
     3    14    15    1
     4    15    16    2
     5    16    17    1
     6    16    18    1
     7    18    11    1
     8    11     1    1
     9     1     2   ar
    10     2     3   ar
    11     3     4   ar
    12     4     5   ar
    13     5     6   ar
    14     6     7   ar
    15     7    23    1
    16    23    24    1
    17    24    25    1
    18    25    26    1
    19    26    27    1
    20    27    28    1
    21    28    29    1
    22    29    30    1
    23    29    31    1
    24     7     8   ar
    25     8     9    1
    26     8    10   ar
    27    18    19    2
    28    19    20    1
    29    20    21    1
    30    21    22    2
    31    22    13    1
    32    21    15    1
    33    10     1   ar
    34    10     5   ar
    35    31    26    1
    36    30    32    1
@<TRIPOS>MOLECULE
*****
 32 36 0 0 0
SMALL
GASTEIGER

@<TRIPOS>ATOM
      1 C          60.9255   88.2560   10.7002 C.ar    1  UNL1        0.2490
      2 N          60.0153   88.9083    9.7021 N.ar    1  UNL1       -0.1863
      3 C          59.8046   88.2799    8.3565 C.ar    1  UNL1        0.2225
      4 N          60.5041   86.9993    8.0090 N.ar    1  UNL1       -0.1420
      5 N          61.4142   86.3471    9.0070 N.ar    1  UNL1       -0.2193
      6 C          62.2329   85.0916    8.9485 C.ar    1  UNL1        0.1371
      7 C          62.9496   84.9440   10.2579 C.ar    1  UNL1        0.1553
      8 C          62.5738   86.1083   11.1257 C.ar    1  UNL1        0.0359
      9 C          63.0614   86.3611   12.5216 C.3     1  UNL1        0.0360
     10 C          61.6249   86.9755   10.3527 C.ar    1  UNL1        0.1353
     11 O          61.1361   88.8844   12.0459 O.3     1  UNL1       -0.4328
     12 C          66.8428   94.1129   10.7341 C.3     1  UNL1        0.0521
     13 C          65.8552   93.1105   11.2537 C.2     1  UNL1        0.0591
     14 C          64.7621   92.4573   10.4611 C.2     1  UNL1        0.0182
     15 C          64.0187   91.5283   11.3746 C.2     1  UNL1        0.0455
     16 C          62.8466   90.6207   11.1460 C.2     1  UNL1        0.1752
     17 F          62.2128   90.5416    9.7887 F       1  UNL1       -0.2009
     18 C          62.3082   89.7921   12.2746 C.2     1  UNL1        0.1706
     19 C          62.9420   89.8712   13.6318 C.2     1  UNL1        0.0201
     20 C          64.1142   90.7789   13.8604 C.3     1  UNL1        0.0751
     21 C          64.6525   91.6074   12.7319 C.2     1  UNL1        0.0653
     22 N          65.7875   92.5853   12.6571 N.2     1  UNL1       -0.2536
     23 O          63.8789   83.8281   10.6335 O.3     1  UNL1       -0.4727
     24 C          63.3784   82.4145   10.6673 C.3     1  UNL1        0.2227
     25 C          63.1056   81.7467   11.9824 C.3     1  UNL1        0.1201
     26 N          63.1668   82.5406   13.2537 N.3     1  UNL1       -0.2674
     27 C          62.1075   82.5893   14.3146 C.3     1  UNL1        0.0748
     28 C          62.5841   83.5039   15.4038 C.3     1  UNL1        0.0480
     29 C          63.9379   84.0205   15.0160 C.3     1  UNL1        0.1278
     30 O          64.7831   84.9664   15.8165 O.3     1  UNL1       -0.3830
     31 C          64.2980   83.4251   13.6871 C.3     1  UNL1        0.1018
     32 H          64.3195   85.2000   16.6359 H       1  UNL1        0.2104
@<TRIPOS>BOND
     1    12    13    1
     2    13    14    2
     3    14    15    1
     4    15    16    2
     5    16    17    1
     6    16    18    1
     7    18    11    1
     8    11     1    1
     9     1     2   ar
    10     2     3   ar
    11     3     4   ar
    12     4     5   ar
    13     5     6   ar
    14     6     7   ar
    15     7    23    1
    16    23    24    1
    17    24    25    1
    18    25    26    1
    19    26    27    1
    20    27    28    1
    21    28    29    1
    22    29    30    1
    23    29    31    1
    24     7     8   ar
    25     8     9    1
    26     8    10   ar
    27    18    19    2
    28    19    20    1
    29    20    21    1
    30    21    22    2
    31    22    13    1
    32    21    15    1
    33    10     1   ar
    34    10     5   ar
    35    31    26    1
    36    30    32    1
@<TRIPOS>MOLECULE
*****
 32 36 0 0 0
SMALL
GASTEIGER

@<TRIPOS>ATOM
      1 C          63.9828   89.5184   14.4852 C.ar    1  UNL1        0.2490
      2 N          63.0354   88.9494   15.4993 N.ar    1  UNL1       -0.1863
      3 C          62.8217   89.6556   16.8053 C.ar    1  UNL1        0.2225
      4 N          63.5553   90.9309   17.0971 N.ar    1  UNL1       -0.1420
      5 N          64.5027   91.5000   16.0829 N.ar    1  UNL1       -0.2193
      6 C          65.3598   92.7311   16.0898 C.ar    1  UNL1        0.1371
      7 C          66.1032   92.7857   14.7882 C.ar    1  UNL1        0.1553
      8 C          65.7056   91.5884   13.9768 C.ar    1  UNL1        0.0359
      9 C          66.2087   91.2457   12.6059 C.3     1  UNL1        0.0360
     10 C          64.7164   90.7938   14.7770 C.ar    1  UNL1        0.1353
     11 O          64.1965   88.8122   13.1792 O.3     1  UNL1       -0.4328
     12 C          58.9300   86.8815    7.6874 C.3     1  UNL1        0.0521
     13 C          59.8788   87.5212    8.6572 C.2     1  UNL1        0.0591
     14 C          60.7539   86.8009    9.6398 C.2     1  UNL1        0.0182
     15 C          61.5351   87.8279   10.4046 C.2     1  UNL1        0.0455
     16 C          62.5530   87.7043   11.4994 C.2     1  UNL1        0.1752
     17 F          62.9451   86.3493   12.0094 F       1  UNL1       -0.2009
     18 C          63.1787   88.9358   12.0844 C.2     1  UNL1        0.1706
     19 C          62.7865   90.2908   11.5744 C.2     1  UNL1        0.0201
     20 C          61.7686   90.4144   10.4795 C.3     1  UNL1        0.0751
     21 C          61.1430   89.1830    9.8946 C.2     1  UNL1        0.0653
     22 N          60.1193   88.9934    8.8147 N.2     1  UNL1       -0.2536
     23 O          67.0737   93.8506   14.3711 O.3     1  UNL1       -0.4727
     24 C          66.6826   94.8550   13.3281 C.3     1  UNL1        0.2227
     25 C          65.9979   94.4040   12.0719 C.3     1  UNL1        0.1201
     26 N          66.7829   94.2535   10.8025 N.3     1  UNL1       -0.2674
     27 C          67.1020   95.3484    9.8281 C.3     1  UNL1        0.0748
     28 C          67.9028   94.7533    8.7081 C.3     1  UNL1        0.0480
     29 C          68.0786   93.2905    8.9903 C.3     1  UNL1        0.1278
     30 O          68.8170   92.3090    8.1292 O.3     1  UNL1       -0.3830
     31 C          67.3865   92.9817   10.2847 C.3     1  UNL1        0.1018
     32 H          69.1707   92.7650    7.3496 H       1  UNL1        0.2104
@<TRIPOS>BOND
     1    12    13    1
     2    13    14    2
     3    14    15    1
     4    15    16    2
     5    16    17    1
     6    16    18    1
     7    18    11    1
     8    11     1    1
     9     1     2   ar
    10     2     3   ar
    11     3     4   ar
    12     4     5   ar
    13     5     6   ar
    14     6     7   ar
    15     7    23    1
    16    23    24    1
    17    24    25    1
    18    25    26    1
    19    26    27    1
    20    27    28    1
    21    28    29    1
    22    29    30    1
    23    29    31    1
    24     7     8   ar
    25     8     9    1
    26     8    10   ar
    27    18    19    2
    28    19    20    1
    29    20    21    1
    30    21    22    2
    31    22    13    1
    32    21    15    1
    33    10     1   ar
    34    10     5   ar
    35    31    26    1
    36    30    32    1
@<TRIPOS>MOLECULE
*****
 32 36 0 0 0
SMALL
GASTEIGER

@<TRIPOS>ATOM
      1 C          64.0960   91.4295   13.6203 C.ar    1  UNL1        0.2490
      2 N          65.4431   92.0885   13.6505 N.ar    1  UNL1       -0.1863
      3 C          66.1184   92.4739   12.3677 C.ar    1  UNL1        0.2225
      4 N          65.4465   92.2002   11.0548 N.ar    1  UNL1       -0.1420
      5 N          64.0994   91.5412   11.0247 N.ar    1  UNL1       -0.2193
      6 C          63.1994   91.1482    9.8909 C.ar    1  UNL1        0.1371
      7 C          61.9680   90.5199   10.4728 C.ar    1  UNL1        0.1553
      8 C          62.1069   90.5246   11.9664 C.ar    1  UNL1        0.0359
      9 C          61.1045   89.9917   12.9468 C.3     1  UNL1        0.0360
     10 C          63.4242   91.1558   12.3075 C.ar    1  UNL1        0.1353
     11 O          63.4207   91.0441   14.9031 O.3     1  UNL1       -0.4328
     12 C          64.5533   83.2764   14.9599 C.3     1  UNL1        0.0521
     13 C          64.2410   84.7207   15.2176 C.2     1  UNL1        0.0591
     14 C          64.4389   85.8515   14.2521 C.2     1  UNL1        0.0182
     15 C          63.9962   87.1175   14.9239 C.2     1  UNL1        0.0455
     16 C          63.9615   88.5424   14.4567 C.2     1  UNL1        0.1752
     17 F          64.4330   88.8907   13.0760 F       1  UNL1       -0.2009
     18 C          63.4554   89.6191   15.3703 C.2     1  UNL1        0.1706
     19 C          62.9840   89.2708   16.7510 C.2     1  UNL1        0.0201
     20 C          63.0187   87.8458   17.2181 C.3     1  UNL1        0.0751
     21 C          63.5248   86.7692   16.3046 C.2     1  UNL1        0.0653
     22 N          63.6761   85.2879   16.4861 N.2     1  UNL1       -0.2536
     23 O          60.8023   89.9814    9.6974 O.3     1  UNL1       -0.4727
     24 C          60.7919   88.5472    9.2583 C.3     1  UNL1        0.2227
     25 C          60.7207   87.4506   10.2793 C.3     1  UNL1        0.1201
     26 N          61.6726   86.2937   10.2049 N.3     1  UNL1       -0.2674
     27 C          62.3989   85.8270    8.9783 C.3     1  UNL1        0.0748
     28 C          63.2405   84.6452    9.3593 C.3     1  UNL1        0.0480
     29 C          63.0342   84.3815   10.8215 C.3     1  UNL1        0.1278
     30 O          63.6831   83.2906   11.6208 O.3     1  UNL1       -0.3830
     31 C          62.0653   85.4003   11.3441 C.3     1  UNL1        0.1018
     32 H          64.2658   82.7709   11.0452 H       1  UNL1        0.2104
@<TRIPOS>BOND
     1    12    13    1
     2    13    14    2
     3    14    15    1
     4    15    16    2
     5    16    17    1
     6    16    18    1
     7    18    11    1
     8    11     1    1
     9     1     2   ar
    10     2     3   ar
    11     3     4   ar
    12     4     5   ar
    13     5     6   ar
    14     6     7   ar
    15     7    23    1
    16    23    24    1
    17    24    25    1
    18    25    26    1
    19    26    27    1
    20    27    28    1
    21    28    29    1
    22    29    30    1
    23    29    31    1
    24     7     8   ar
    25     8     9    1
    26     8    10   ar
    27    18    19    2
    28    19    20    1
    29    20    21    1
    30    21    22    2
    31    22    13    1
    32    21    15    1
    33    10     1   ar
    34    10     5   ar
    35    31    26    1
    36    30    32    1
