@<TRIPOS>MOLECULE
*****
 26 28 0 0 0
SMALL
GASTEIGER

@<TRIPOS>ATOM
      1 C          61.4581   90.4513   10.7264 C.3     1  UNL1        0.0262
      2 C          62.4292   89.7790   11.6510 C.3     1  UNL1        0.0945
      3 C          63.5871   90.5500   12.2122 C.ar    1  UNL1       -0.0033
      4 C          64.0049   90.3439   13.6381 C.ar    1  UNL1       -0.0026
      5 C          65.1627   91.1149   14.1993 C.ar    1  UNL1        0.0010
      6 C          65.9028   92.0920   13.3346 C.ar    1  UNL1        0.0145
      7 C          65.4850   92.2981   11.9088 C.ar    1  UNL1        0.0477
      8 C          64.3272   91.5270   11.3476 C.ar    1  UNL1        0.0118
      9 N          66.2251   93.2751   11.0442 N.pl3   1  UNL1       -0.3028
     10 C          65.9319   94.7424   11.1502 C.3     1  UNL1        0.1231
     11 C          66.6720   95.7195   10.2855 C.3     1  UNL1        0.1636
     12 O          67.7052   95.2293    9.3149 O.3     1  UNL1       -0.3501
     13 C          67.9984   93.7620    9.2089 C.3     1  UNL1        0.1636
     14 C          67.2583   92.7850   10.0735 C.3     1  UNL1        0.1231
     15 N          62.2425   88.3357   12.0145 N.am    1  UNL1       -0.2987
     16 C          62.1672   87.2947   10.9372 C.2     1  UNL1        0.2462
     17 O          62.2787   87.6970    9.4964 O.2     1  UNL1       -0.2701
     18 H          62.1694   88.0717   12.9601 H       1  UNL1        0.1500
     19 C          61.9805   85.8514   11.3006 C.2     1  UNL1        0.0577
     20 C          62.9732   85.1684   12.1940 C.2     1  UNL1        0.0047
     21 C          62.7864   83.7251   12.5574 C.ar    1  UNL1        0.0001
     22 C          63.0011   82.6580   11.5253 C.ar    1  UNL1        0.0000
     23 C          62.8144   81.2148   11.8888 C.ar    1  UNL1        0.0000
     24 C          62.4130   80.8386   13.2843 C.ar    1  UNL1        0.0000
     25 C          62.1983   81.9057   14.3163 C.ar    1  UNL1        0.0000
     26 C          62.3850   83.3490   13.9529 C.ar    1  UNL1        0.0000
@<TRIPOS>BOND
     1     2     1    1
     2     2    15    1
     3    15    16   am
     4    16    17    2
     5    16    19    1
     6    19    20    2
     7    20    21    1
     8    21    22   ar
     9    22    23   ar
    10    23    24   ar
    11    24    25   ar
    12    25    26   ar
    13     2     3    1
    14     3     4   ar
    15     4     5   ar
    16     5     6   ar
    17     6     7   ar
    18     7     9    1
    19     9    10    1
    20    10    11    1
    21    11    12    1
    22    12    13    1
    23    13    14    1
    24     7     8   ar
    25    26    21   ar
    26     8     3   ar
    27    14     9    1
    28    15    18    1
@<TRIPOS>MOLECULE
*****
 26 28 0 0 0
SMALL
GASTEIGER

@<TRIPOS>ATOM
      1 C          63.4443   89.4566   15.1861 C.3     1  UNL1        0.0262
      2 C          64.0790   89.9802   13.9318 C.3     1  UNL1        0.0945
      3 C          64.9417   91.2062   13.9833 C.ar    1  UNL1       -0.0033
      4 C          65.4935   91.6805   15.2951 C.ar    1  UNL1       -0.0026
      5 C          66.3562   92.9065   15.3466 C.ar    1  UNL1        0.0010
      6 C          66.6672   93.6582   14.0863 C.ar    1  UNL1        0.0145
      7 C          66.1154   93.1839   12.7746 C.ar    1  UNL1        0.0477
      8 C          65.2527   91.9579   12.7231 C.ar    1  UNL1        0.0118
      9 N          66.4264   93.9356   11.5144 N.pl3   1  UNL1       -0.3028
     10 C          66.0576   95.3847   11.3951 C.3     1  UNL1        0.1231
     11 C          66.3686   96.1364   10.1348 C.3     1  UNL1        0.1636
     12 O          67.0484   95.4391    8.9939 O.3     1  UNL1       -0.3501
     13 C          67.4171   93.9900    9.1133 C.3     1  UNL1        0.1636
     14 C          67.1062   93.2383   10.3735 C.3     1  UNL1        0.1231
     15 N          63.8511   89.2778   12.6262 N.am    1  UNL1       -0.2987
     16 C          62.4772   89.2386   12.0256 C.2     1  UNL1        0.2462
     17 O          61.3312   89.9018   12.7306 O.2     1  UNL1       -0.2701
     18 H          64.6032   88.8425   12.1635 H       1  UNL1        0.1500
     19 C          62.2492   88.5362   10.7199 C.2     1  UNL1        0.0577
     20 C          62.0468   87.0502   10.6930 C.2     1  UNL1        0.0047
     21 C          61.8188   86.3478    9.3874 C.ar    1  UNL1        0.0001
     22 C          60.4685   86.3952    8.7360 C.ar    1  UNL1        0.0000
     23 C          60.2405   85.6928    7.4304 C.ar    1  UNL1        0.0000
     24 C          61.3629   84.9430    6.7761 C.ar    1  UNL1        0.0000
     25 C          62.7133   84.8956    7.4275 C.ar    1  UNL1        0.0000
     26 C          62.9412   85.5980    8.7331 C.ar    1  UNL1        0.0000
@<TRIPOS>BOND
     1     2     1    1
     2     2    15    1
     3    15    16   am
     4    16    17    2
     5    16    19    1
     6    19    20    2
     7    20    21    1
     8    21    22   ar
     9    22    23   ar
    10    23    24   ar
    11    24    25   ar
    12    25    26   ar
    13     2     3    1
    14     3     4   ar
    15     4     5   ar
    16     5     6   ar
    17     6     7   ar
    18     7     9    1
    19     9    10    1
    20    10    11    1
    21    11    12    1
    22    12    13    1
    23    13    14    1
    24     7     8   ar
    25    26    21   ar
    26     8     3   ar
    27    14     9    1
    28    15    18    1
@<TRIPOS>MOLECULE
*****
 26 28 0 0 0
SMALL
GASTEIGER

@<TRIPOS>ATOM
      1 C          59.4841   90.4788   11.3983 C.3     1  UNL1        0.0262
      2 C          60.6813   89.5915   11.5707 C.3     1  UNL1        0.0945
      3 C          60.8455   88.3771   10.7056 C.ar    1  UNL1       -0.0033
      4 C          60.1589   88.3066    9.3738 C.ar    1  UNL1       -0.0026
      5 C          60.3232   87.0922    8.5087 C.ar    1  UNL1        0.0010
      6 C          61.1740   85.9484    8.9755 C.ar    1  UNL1        0.0145
      7 C          61.8605   86.0190   10.3073 C.ar    1  UNL1        0.0477
      8 C          61.6963   87.2333   11.1724 C.ar    1  UNL1        0.0118
      9 N          62.7112   84.8752   10.7740 N.pl3   1  UNL1       -0.3028
     10 C          62.8326   84.5799   12.2397 C.3     1  UNL1        0.1231
     11 C          63.6834   83.4360   12.7064 C.3     1  UNL1        0.1636
     12 O          64.4128   82.5875   11.7075 O.3     1  UNL1       -0.3501
     13 C          64.2914   82.8827   10.2418 C.3     1  UNL1        0.1636
     14 C          63.4407   84.0265    9.7751 C.3     1  UNL1        0.1231
     15 N          61.7141   89.9187   12.6080 N.am    1  UNL1       -0.2987
     16 C          62.9991   90.5791   12.2048 C.2     1  UNL1        0.2462
     17 O          63.2512   90.9124   10.7642 O.2     1  UNL1       -0.2701
     18 H          61.5487   89.6999   13.5535 H       1  UNL1        0.1500
     19 C          64.0320   90.9063   13.2422 C.2     1  UNL1        0.0577
     20 C          65.2594   91.6795   12.8607 C.2     1  UNL1        0.0047
     21 C          66.2923   92.0067   13.8981 C.ar    1  UNL1        0.0001
     22 C          67.7504   91.9355   13.5532 C.ar    1  UNL1        0.0000
     23 C          68.7832   92.2627   14.5906 C.ar    1  UNL1        0.0000
     24 C          68.3580   92.6610   15.9728 C.ar    1  UNL1        0.0000
     25 C          66.9000   92.7321   16.3176 C.ar    1  UNL1        0.0000
     26 C          65.8671   92.4050   15.2803 C.ar    1  UNL1        0.0000
@<TRIPOS>BOND
     1     2     1    1
     2     2    15    1
     3    15    16   am
     4    16    17    2
     5    16    19    1
     6    19    20    2
     7    20    21    1
     8    21    22   ar
     9    22    23   ar
    10    23    24   ar
    11    24    25   ar
    12    25    26   ar
    13     2     3    1
    14     3     4   ar
    15     4     5   ar
    16     5     6   ar
    17     6     7   ar
    18     7     9    1
    19     9    10    1
    20    10    11    1
    21    11    12    1
    22    12    13    1
    23    13    14    1
    24     7     8   ar
    25    26    21   ar
    26     8     3   ar
    27    14     9    1
    28    15    18    1
@<TRIPOS>MOLECULE
*****
 26 28 0 0 0
SMALL
GASTEIGER

@<TRIPOS>ATOM
      1 C          60.3627   88.3166    9.2648 C.3     1  UNL1        0.0262
      2 C          61.7313   88.0018    9.7919 C.3     1  UNL1        0.0945
      3 C          62.2242   86.5851    9.8004 C.ar    1  UNL1       -0.0033
      4 C          62.7445   85.9645    8.5378 C.ar    1  UNL1       -0.0026
      5 C          63.2374   84.5478    8.5462 C.ar    1  UNL1        0.0010
      6 C          63.2099   83.7517    9.8173 C.ar    1  UNL1        0.0145
      7 C          62.6895   84.3723   11.0798 C.ar    1  UNL1        0.0477
      8 C          62.1967   85.7890   11.0714 C.ar    1  UNL1        0.0118
      9 N          62.6621   83.5762   12.3508 N.pl3   1  UNL1       -0.3028
     10 C          62.5017   82.0857   12.2989 C.3     1  UNL1        0.1231
     11 C          62.4742   81.2897   13.5700 C.3     1  UNL1        0.1636
     12 O          62.6071   81.9841   14.8929 O.3     1  UNL1       -0.3501
     13 C          62.7675   83.4746   14.9448 C.3     1  UNL1        0.1636
     14 C          62.7950   84.2706   13.6738 C.3     1  UNL1        0.1231
     15 N          62.6071   89.1036   10.3106 N.am    1  UNL1       -0.2987
     16 C          62.3205   89.7238   11.6459 C.2     1  UNL1        0.2462
     17 O          61.1581   89.2422   12.4626 O.2     1  UNL1       -0.2701
     18 H          63.3699   89.4198    9.7745 H       1  UNL1        0.1500
     19 C          63.1962   90.8257   12.1646 C.2     1  UNL1        0.0577
     20 C          64.3270   90.5087   13.0978 C.2     1  UNL1        0.0047
     21 C          65.2027   91.6106   13.6165 C.ar    1  UNL1        0.0001
     22 C          65.6288   92.7225   12.7042 C.ar    1  UNL1        0.0000
     23 C          66.5045   93.8243   13.2229 C.ar    1  UNL1        0.0000
     24 C          66.9541   93.8143   14.6539 C.ar    1  UNL1        0.0000
     25 C          66.5281   92.7024   15.5662 C.ar    1  UNL1        0.0000
     26 C          65.6524   91.6006   15.0474 C.ar    1  UNL1        0.0000
@<TRIPOS>BOND
     1     2     1    1
     2     2    15    1
     3    15    16   am
     4    16    17    2
     5    16    19    1
     6    19    20    2
     7    20    21    1
     8    21    22   ar
     9    22    23   ar
    10    23    24   ar
    11    24    25   ar
    12    25    26   ar
    13     2     3    1
    14     3     4   ar
    15     4     5   ar
    16     5     6   ar
    17     6     7   ar
    18     7     9    1
    19     9    10    1
    20    10    11    1
    21    11    12    1
    22    12    13    1
    23    13    14    1
    24     7     8   ar
    25    26    21   ar
    26     8     3   ar
    27    14     9    1
    28    15    18    1
@<TRIPOS>MOLECULE
*****
 26 28 0 0 0
SMALL
GASTEIGER

@<TRIPOS>ATOM
      1 C          63.0151   89.7467   16.0049 C.3     1  UNL1        0.0262
      2 C          64.0552   89.7122   14.9246 C.3     1  UNL1        0.0945
      3 C          64.9463   90.8984   14.7033 C.ar    1  UNL1       -0.0033
      4 C          65.3650   91.7491   15.8656 C.ar    1  UNL1       -0.0026
      5 C          66.2561   92.9353   15.6443 C.ar    1  UNL1        0.0010
      6 C          66.7284   93.2707   14.2606 C.ar    1  UNL1        0.0145
      7 C          66.3097   92.4200   13.0983 C.ar    1  UNL1        0.0477
      8 C          65.4186   91.2338   13.3197 C.ar    1  UNL1        0.0118
      9 N          66.7820   92.7555   11.7148 N.pl3   1  UNL1       -0.3028
     10 C          66.1663   93.9024   10.9696 C.3     1  UNL1        0.1231
     11 C          66.6387   94.2379    9.5859 C.3     1  UNL1        0.1636
     12 O          67.7267   93.4263    8.9475 O.3     1  UNL1       -0.3501
     13 C          68.3424   92.2794    9.6928 C.3     1  UNL1        0.1636
     14 C          67.8701   91.9439   11.0763 C.3     1  UNL1        0.1231
     15 N          64.2043   88.4915   14.0657 N.am    1  UNL1       -0.2987
     16 C          64.0335   87.1273   14.6652 C.2     1  UNL1        0.2462
     17 O          63.7137   86.9836   16.1237 O.2     1  UNL1       -0.2701
     18 H          64.4142   88.5858   13.1085 H       1  UNL1        0.1500
     19 C          64.1826   85.9065   13.8063 C.2     1  UNL1        0.0577
     20 C          62.9657   85.1591   13.3476 C.2     1  UNL1        0.0047
     21 C          63.1148   83.9384   12.4887 C.ar    1  UNL1        0.0001
     22 C          63.7927   84.0383   11.1544 C.ar    1  UNL1        0.0000
     23 C          63.9417   82.8176   10.2956 C.ar    1  UNL1        0.0000
     24 C          63.4128   81.4970   10.7710 C.ar    1  UNL1        0.0000
     25 C          62.7349   81.3970   12.1053 C.ar    1  UNL1        0.0000
     26 C          62.5858   82.6177   12.9641 C.ar    1  UNL1        0.0000
@<TRIPOS>BOND
     1     2     1    1
     2     2    15    1
     3    15    16   am
     4    16    17    2
     5    16    19    1
     6    19    20    2
     7    20    21    1
     8    21    22   ar
     9    22    23   ar
    10    23    24   ar
    11    24    25   ar
    12    25    26   ar
    13     2     3    1
    14     3     4   ar
    15     4     5   ar
    16     5     6   ar
    17     6     7   ar
    18     7     9    1
    19     9    10    1
    20    10    11    1
    21    11    12    1
    22    12    13    1
    23    13    14    1
    24     7     8   ar
    25    26    21   ar
    26     8     3   ar
    27    14     9    1
    28    15    18    1
@<TRIPOS>MOLECULE
*****
 26 28 0 0 0
SMALL
GASTEIGER

@<TRIPOS>ATOM
      1 C          64.0485   89.1191   14.6341 C.3     1  UNL1        0.0262
      2 C          63.7600   89.3201   13.1759 C.3     1  UNL1        0.0945
      3 C          63.1840   88.1982   12.3638 C.ar    1  UNL1       -0.0033
      4 C          62.5300   88.4859   11.0448 C.ar    1  UNL1       -0.0026
      5 C          61.9541   87.3640   10.2327 C.ar    1  UNL1        0.0010
      6 C          62.0321   85.9543   10.7395 C.ar    1  UNL1        0.0145
      7 C          62.6861   85.6666   12.0584 C.ar    1  UNL1        0.0477
      8 C          63.2620   86.7886   12.8705 C.ar    1  UNL1        0.0118
      9 N          62.7641   84.2570   12.5652 N.pl3   1  UNL1       -0.3028
     10 C          63.0113   83.1286   11.6084 C.3     1  UNL1        0.1231
     11 C          63.0893   81.7189   12.1152 C.3     1  UNL1        0.1636
     12 O          62.9201   81.4377   13.5788 O.3     1  UNL1       -0.3501
     13 C          62.6728   82.5662   14.5357 C.3     1  UNL1        0.1636
     14 C          62.5948   83.9758   14.0289 C.3     1  UNL1        0.1231
     15 N          64.0473   90.6430   12.5298 N.am    1  UNL1       -0.2987
     16 C          65.1777   91.4923   13.0305 C.2     1  UNL1        0.2462
     17 O          66.0208   91.0188   14.1773 O.2     1  UNL1       -0.2701
     18 H          63.4940   90.9537   11.7772 H       1  UNL1        0.1500
     19 C          65.4651   92.8152   12.3845 C.2     1  UNL1        0.0577
     20 C          66.3552   92.8836   11.1791 C.2     1  UNL1        0.0047
     21 C          66.6426   94.2065   10.5330 C.ar    1  UNL1        0.0001
     22 C          66.3288   95.4803   11.2603 C.ar    1  UNL1        0.0000
     23 C          66.6162   96.8031   10.6142 C.ar    1  UNL1        0.0000
     24 C          67.2175   96.8522    9.2409 C.ar    1  UNL1        0.0000
     25 C          67.5313   95.5784    8.5136 C.ar    1  UNL1        0.0000
     26 C          67.2439   94.2556    9.1597 C.ar    1  UNL1        0.0000
@<TRIPOS>BOND
     1     2     1    1
     2     2    15    1
     3    15    16   am
     4    16    17    2
     5    16    19    1
     6    19    20    2
     7    20    21    1
     8    21    22   ar
     9    22    23   ar
    10    23    24   ar
    11    24    25   ar
    12    25    26   ar
    13     2     3    1
    14     3     4   ar
    15     4     5   ar
    16     5     6   ar
    17     6     7   ar
    18     7     9    1
    19     9    10    1
    20    10    11    1
    21    11    12    1
    22    12    13    1
    23    13    14    1
    24     7     8   ar
    25    26    21   ar
    26     8     3   ar
    27    14     9    1
    28    15    18    1
@<TRIPOS>MOLECULE
*****
 26 28 0 0 0
SMALL
GASTEIGER

@<TRIPOS>ATOM
      1 C          59.7690   88.2303   11.1911 C.3     1  UNL1        0.0262
      2 C          60.5848   87.9165    9.9720 C.3     1  UNL1        0.0945
      3 C          61.4787   86.7121    9.9574 C.ar    1  UNL1       -0.0033
      4 C          62.2018   86.3299    8.6999 C.ar    1  UNL1       -0.0026
      5 C          63.0958   85.1255    8.6854 C.ar    1  UNL1        0.0010
      6 C          63.2667   84.3033    9.9283 C.ar    1  UNL1        0.0145
      7 C          62.5436   84.6855   11.1857 C.ar    1  UNL1        0.0477
      8 C          61.6497   85.8899   11.2003 C.ar    1  UNL1        0.0118
      9 N          62.7146   83.8633   12.4286 N.pl3   1  UNL1       -0.3028
     10 C          62.9963   84.5354   13.7396 C.3     1  UNL1        0.1231
     11 C          63.1672   83.7131   14.9825 C.3     1  UNL1        0.1636
     12 O          63.0565   82.2188   14.9143 O.3     1  UNL1       -0.3501
     13 C          62.7748   81.5467   13.6032 C.3     1  UNL1        0.1636
     14 C          62.6038   82.3689   12.3604 C.3     1  UNL1        0.1231
     15 N          60.5065   88.8071    8.7675 N.am    1  UNL1       -0.2987
     16 C          59.4883   88.5367    7.6998 C.2     1  UNL1        0.2462
     17 O          58.5483   87.3759    7.8366 O.2     1  UNL1       -0.2701
     18 H          61.1235   89.5690    8.6778 H       1  UNL1        0.1500
     19 C          59.4100   89.4273    6.4953 C.2     1  UNL1        0.0577
     20 C          60.5921   90.2628    6.1022 C.2     1  UNL1        0.0047
     21 C          60.5139   91.1534    4.8977 C.ar    1  UNL1        0.0001
     22 C          61.7230   91.3532    4.0328 C.ar    1  UNL1        0.0000
     23 C          61.6447   92.2437    2.8284 C.ar    1  UNL1        0.0000
     24 C          60.3573   92.9345    2.4888 C.ar    1  UNL1        0.0000
     25 C          59.1481   92.7347    3.3536 C.ar    1  UNL1        0.0000
     26 C          59.2264   91.8441    4.5580 C.ar    1  UNL1        0.0000
@<TRIPOS>BOND
     1     2     1    1
     2     2    15    1
     3    15    16   am
     4    16    17    2
     5    16    19    1
     6    19    20    2
     7    20    21    1
     8    21    22   ar
     9    22    23   ar
    10    23    24   ar
    11    24    25   ar
    12    25    26   ar
    13     2     3    1
    14     3     4   ar
    15     4     5   ar
    16     5     6   ar
    17     6     7   ar
    18     7     9    1
    19     9    10    1
    20    10    11    1
    21    11    12    1
    22    12    13    1
    23    13    14    1
    24     7     8   ar
    25    26    21   ar
    26     8     3   ar
    27    14     9    1
    28    15    18    1
