@<TRIPOS>MOLECULE
*****
 27 29 0 0 0
SMALL
GASTEIGER

@<TRIPOS>ATOM
      1 N          62.8386   90.8540   11.2917 N.ar    1  UNL1       -0.3190
      2 C          63.7284   91.7003   10.4303 C.ar    1  UNL1        0.0823
      3 C          64.8471   92.2165   11.2859 C.ar    1  UNL1        0.0895
      4 C          64.6487   91.6893   12.6761 C.ar    1  UNL1        0.1028
      5 N          65.4379   91.8672   13.9392 N.ar    1  UNL1       -0.2425
      6 C          64.9859   91.2029   15.2058 C.ar    1  UNL1        0.0946
      7 C          63.7446   90.3608   15.2094 C.ar    1  UNL1       -0.0013
      8 C          63.2925   89.6966   16.4761 C.3     1  UNL1        0.0327
      9 C          62.9553   90.1829   13.9463 C.ar    1  UNL1        0.0160
     10 C          63.4074   90.8472   12.6797 C.ar    1  UNL1        0.0780
     11 C          65.9675   93.1042   10.8312 C.2     1  UNL1        0.2489
     12 O          67.3910   92.7026   11.0805 O.2     1  UNL1       -0.2700
     13 N          65.6643   94.3937   10.1271 N.am    1  UNL1       -0.2981
     14 H          64.7300   94.6573    9.9635 H       1  UNL1        0.1498
     15 C          66.7847   95.2813    9.6724 C.3     1  UNL1        0.1280
     16 C          67.5261   94.9648    8.4075 C.3     1  UNL1        0.2144
     17 F          67.9876   93.5630    8.1395 F       1  UNL1       -0.2324
     18 C          61.5979   90.1399   10.8437 C.3     1  UNL1        0.1518
     19 C          60.9210   86.5662    9.2559 C.ar    1  UNL1        0.2234
     20 N          61.6702   85.6851   10.2111 N.ar    1  UNL1       -0.1896
     21 C          62.3952   86.2889   11.3772 C.ar    1  UNL1        0.2012
     22 N          62.3712   87.7738   11.5881 N.ar    1  UNL1       -0.2265
     23 C          61.6220   88.6549   10.6329 C.ar    1  UNL1        0.0841
     24 C          60.8970   88.0511    9.4668 C.ar    1  UNL1        0.0468
     25 C          60.1479   88.9323    8.5116 C.3     1  UNL1        0.0372
     26 C          60.9656   85.2637    7.0084 C.3     1  UNL1        0.2542
     27 O          60.1960   85.9624    8.0898 O.3     1  UNL1       -0.4563
@<TRIPOS>BOND
     1    26    27    1
     2    27    19    1
     3    19    20   ar
     4    20    21   ar
     5    21    22   ar
     6    22    23   ar
     7    23    18    1
     8    18     1    1
     9     1     2   ar
    10     2     3   ar
    11     3    11    1
    12    11    12    2
    13    11    13   am
    14    13    15    1
    15    15    16    1
    16    16    17    1
    17     3     4   ar
    18     4     5   ar
    19     5     6   ar
    20     6     7   ar
    21     7     8    1
    22     7     9   ar
    23     9    10   ar
    24    23    24   ar
    25    24    25    1
    26    24    19   ar
    27    10     1   ar
    28    10     4   ar
    29    13    14    1
@<TRIPOS>MOLECULE
*****
 27 29 0 0 0
SMALL
GASTEIGER

@<TRIPOS>ATOM
      1 N          62.1376   88.8482   11.1923 N.ar    1  UNL1       -0.3190
      2 C          62.7365   87.6614   11.8871 C.ar    1  UNL1        0.0823
      3 C          62.2991   86.4268   11.1560 C.ar    1  UNL1        0.0895
      4 C          61.4298   86.8506   10.0094 C.ar    1  UNL1        0.1028
      5 N          60.7163   86.0672    8.9478 N.ar    1  UNL1       -0.2425
      6 C          59.9030   86.7802    7.9086 C.ar    1  UNL1        0.0946
      7 C          59.8032   88.2767    7.9310 C.ar    1  UNL1       -0.0013
      8 C          58.9898   88.9898    6.8917 C.3     1  UNL1        0.0327
      9 C          60.5167   89.0602    8.9926 C.ar    1  UNL1        0.0160
     10 C          61.3300   88.3471   10.0318 C.ar    1  UNL1        0.0780
     11 C          62.6664   85.0161   11.5095 C.2     1  UNL1        0.2489
     12 O          63.2508   84.1096   10.4672 O.2     1  UNL1       -0.2700
     13 N          62.4493   84.5118   12.9055 N.am    1  UNL1       -0.2981
     14 H          62.0657   85.1068   13.5897 H       1  UNL1        0.1498
     15 C          62.8166   83.1011   13.2590 C.3     1  UNL1        0.1280
     16 C          62.2563   82.4683   14.4981 C.3     1  UNL1        0.2144
     17 F          61.1698   81.4398   14.3894 F       1  UNL1       -0.2324
     18 C          62.3150   90.2840   11.5884 C.3     1  UNL1        0.1518
     19 C          65.2848   91.8579   13.6989 C.ar    1  UNL1        0.2234
     20 N          64.9592   91.3469   15.0711 N.ar    1  UNL1       -0.1896
     21 C          63.7523   90.4817   15.2824 C.ar    1  UNL1        0.2012
     22 N          62.8709   90.1274   14.1216 N.ar    1  UNL1       -0.2265
     23 C          63.1965   90.6383   12.7494 C.ar    1  UNL1        0.0841
     24 C          64.4034   91.5036   12.5381 C.ar    1  UNL1        0.0468
     25 C          64.7289   92.0145   11.1658 C.3     1  UNL1        0.0372
     26 C          67.0455   93.5287   14.6252 C.3     1  UNL1        0.2542
     27 O          66.4917   92.7231   13.4876 O.3     1  UNL1       -0.4563
@<TRIPOS>BOND
     1    26    27    1
     2    27    19    1
     3    19    20   ar
     4    20    21   ar
     5    21    22   ar
     6    22    23   ar
     7    23    18    1
     8    18     1    1
     9     1     2   ar
    10     2     3   ar
    11     3    11    1
    12    11    12    2
    13    11    13   am
    14    13    15    1
    15    15    16    1
    16    16    17    1
    17     3     4   ar
    18     4     5   ar
    19     5     6   ar
    20     6     7   ar
    21     7     8    1
    22     7     9   ar
    23     9    10   ar
    24    23    24   ar
    25    24    25    1
    26    24    19   ar
    27    10     1   ar
    28    10     4   ar
    29    13    14    1
@<TRIPOS>MOLECULE
*****
 27 29 0 0 0
SMALL
GASTEIGER

@<TRIPOS>ATOM
      1 N          63.1922   89.9547   12.3971 N.ar    1  UNL1       -0.3190
      2 C          62.4224   89.9360   11.1098 C.ar    1  UNL1        0.0823
      3 C          62.1482   88.5047   10.7545 C.ar    1  UNL1        0.0895
      4 C          62.7485   87.6389   11.8222 C.ar    1  UNL1        0.1028
      5 N          62.7910   86.1502   12.0012 N.ar    1  UNL1       -0.2425
      6 C          63.4786   85.5578   13.1954 C.ar    1  UNL1        0.0946
      7 C          64.1238   86.4539   14.2105 C.ar    1  UNL1       -0.0013
      8 C          64.8115   85.8614   15.4048 C.3     1  UNL1        0.0327
      9 C          64.0814   87.9426   14.0316 C.ar    1  UNL1        0.0160
     10 C          63.3937   88.5350   12.8374 C.ar    1  UNL1        0.0780
     11 C          61.4043   88.0237    9.5441 C.2     1  UNL1        0.2489
     12 O          60.5398   88.9730    8.7687 O.2     1  UNL1       -0.2700
     13 N          61.5250   86.5932    9.1090 N.am    1  UNL1       -0.2981
     14 H          62.0924   85.9700    9.6179 H       1  UNL1        0.1498
     15 C          60.7811   86.1121    7.8985 C.3     1  UNL1        0.1280
     16 C          61.4042   85.0931    6.9912 C.3     1  UNL1        0.2144
     17 F          62.8640   84.7714    7.1154 F       1  UNL1       -0.2324
     18 C          63.6756   91.1783   13.1176 C.3     1  UNL1        0.1518
     19 C          67.1591   92.5669   11.8183 C.ar    1  UNL1        0.2234
     20 N          68.0366   92.2823   13.0011 N.ar    1  UNL1       -0.1896
     21 C          67.4605   91.6298   14.2227 C.ar    1  UNL1        0.2012
     22 N          66.0069   91.2618   14.2615 N.ar    1  UNL1       -0.2265
     23 C          65.1293   91.5463   13.0788 C.ar    1  UNL1        0.0841
     24 C          65.7055   92.1989   11.8572 C.ar    1  UNL1        0.0468
     25 C          64.8278   92.4834   10.6744 C.3     1  UNL1        0.0372
     26 C          68.4398   92.3895    9.5648 C.3     1  UNL1        0.2542
     27 O          67.7352   93.2194   10.5967 O.3     1  UNL1       -0.4563
@<TRIPOS>BOND
     1    26    27    1
     2    27    19    1
     3    19    20   ar
     4    20    21   ar
     5    21    22   ar
     6    22    23   ar
     7    23    18    1
     8    18     1    1
     9     1     2   ar
    10     2     3   ar
    11     3    11    1
    12    11    12    2
    13    11    13   am
    14    13    15    1
    15    15    16    1
    16    16    17    1
    17     3     4   ar
    18     4     5   ar
    19     5     6   ar
    20     6     7   ar
    21     7     8    1
    22     7     9   ar
    23     9    10   ar
    24    23    24   ar
    25    24    25    1
    26    24    19   ar
    27    10     1   ar
    28    10     4   ar
    29    13    14    1
@<TRIPOS>MOLECULE
*****
 27 29 0 0 0
SMALL
GASTEIGER

@<TRIPOS>ATOM
      1 N          62.0873   89.1169   11.2436 N.ar    1  UNL1       -0.3190
      2 C          62.6851   87.9564   11.9824 C.ar    1  UNL1        0.0823
      3 C          62.2809   86.6978   11.2734 C.ar    1  UNL1        0.0895
      4 C          61.4333   87.0806   10.0964 C.ar    1  UNL1        0.1028
      5 N          60.7550   86.2609    9.0392 N.ar    1  UNL1       -0.2425
      6 C          59.9571   86.9363    7.9635 C.ar    1  UNL1        0.0946
      7 C          59.8374   88.4314    7.9451 C.ar    1  UNL1       -0.0013
      8 C          59.0394   89.1067    6.8694 C.3     1  UNL1        0.0327
      9 C          60.5157   89.2511    9.0024 C.ar    1  UNL1        0.0160
     10 C          61.3137   88.5757   10.0781 C.ar    1  UNL1        0.0780
     11 C          62.6581   85.3016   11.6714 C.2     1  UNL1        0.2489
     12 O          63.0832   84.3129   10.6267 O.2     1  UNL1       -0.2700
     13 N          62.6101   84.8942   13.1142 N.am    1  UNL1       -0.2981
     14 H          62.3310   85.5431   13.8000 H       1  UNL1        0.1498
     15 C          62.9872   83.4980   13.5122 C.3     1  UNL1        0.1280
     16 C          62.3324   82.8534   14.6978 C.3     1  UNL1        0.2144
     17 F          61.5696   81.5729   14.5292 F       1  UNL1       -0.2324
     18 C          62.2369   90.5646   11.6067 C.3     1  UNL1        0.1518
     19 C          65.5915   91.6023   13.4562 C.ar    1  UNL1        0.2234
     20 N          66.3278   92.2883   12.3439 N.ar    1  UNL1       -0.1896
     21 C          65.7006   92.3998   10.9860 C.ar    1  UNL1        0.2012
     22 N          64.3370   91.8253   10.7402 N.ar    1  UNL1       -0.2265
     23 C          63.6006   91.1392   11.8524 C.ar    1  UNL1        0.0841
     24 C          64.2279   91.0278   13.2104 C.ar    1  UNL1        0.0468
     25 C          63.4914   90.3417   14.3227 C.3     1  UNL1        0.0372
     26 C          66.1169   92.6312   15.7833 C.3     1  UNL1        0.2542
     27 O          66.2187   91.4908   14.8142 O.3     1  UNL1       -0.4563
@<TRIPOS>BOND
     1    26    27    1
     2    27    19    1
     3    19    20   ar
     4    20    21   ar
     5    21    22   ar
     6    22    23   ar
     7    23    18    1
     8    18     1    1
     9     1     2   ar
    10     2     3   ar
    11     3    11    1
    12    11    12    2
    13    11    13   am
    14    13    15    1
    15    15    16    1
    16    16    17    1
    17     3     4   ar
    18     4     5   ar
    19     5     6   ar
    20     6     7   ar
    21     7     8    1
    22     7     9   ar
    23     9    10   ar
    24    23    24   ar
    25    24    25    1
    26    24    19   ar
    27    10     1   ar
    28    10     4   ar
    29    13    14    1
@<TRIPOS>MOLECULE
*****
 27 29 0 0 0
SMALL
GASTEIGER

@<TRIPOS>ATOM
      1 N          61.8057   86.8006   11.2336 N.ar    1  UNL1       -0.3190
      2 C          60.8760   86.5586   10.0817 C.ar    1  UNL1        0.0823
      3 C          60.7191   87.8492    9.3336 C.ar    1  UNL1        0.0895
      4 C          61.5518   88.8889   10.0232 C.ar    1  UNL1        0.1028
      5 N          61.7852   90.3421    9.7337 N.ar    1  UNL1       -0.2425
      6 C          62.6903   91.1471   10.6183 C.ar    1  UNL1        0.0946
      7 C          63.3619   90.4990   11.7926 C.ar    1  UNL1       -0.0013
      8 C          64.2670   91.3042   12.6773 C.3     1  UNL1        0.0327
      9 C          63.1284   89.0459   12.0822 C.ar    1  UNL1        0.0160
     10 C          62.2234   88.2409   11.1975 C.ar    1  UNL1        0.0780
     11 C          59.8772   88.0627    8.1106 C.2     1  UNL1        0.2489
     12 O          59.0959   86.9219    7.5294 O.2     1  UNL1       -0.2700
     13 N          59.8167   89.4172    7.4688 N.am    1  UNL1       -0.2981
     14 H          60.3295   90.1660    7.8503 H       1  UNL1        0.1498
     15 C          58.9748   89.6307    6.2458 C.3     1  UNL1        0.1280
     16 C          59.0134   90.9480    5.5295 C.3     1  UNL1        0.2144
     17 F          57.7349   91.6587    5.1972 F       1  UNL1       -0.2324
     18 C          62.2414   85.7814   12.2443 C.3     1  UNL1        0.1518
     19 C          63.4805   82.0112   12.2740 C.ar    1  UNL1        0.2234
     20 N          64.0225   81.8800   10.8815 N.ar    1  UNL1       -0.1896
     21 C          63.9709   83.0493    9.9433 C.ar    1  UNL1        0.2012
     22 N          63.3772   84.3497   10.3975 N.ar    1  UNL1       -0.2265
     23 C          62.8351   84.4809   11.7900 C.ar    1  UNL1        0.0841
     24 C          62.8868   83.3117   12.7282 C.ar    1  UNL1        0.0468
     25 C          62.3446   83.4429   14.1206 C.3     1  UNL1        0.0372
     26 C          62.3621   79.9087   13.3125 C.3     1  UNL1        0.2542
     27 O          63.5321   80.8420   13.2122 O.3     1  UNL1       -0.4563
@<TRIPOS>BOND
     1    26    27    1
     2    27    19    1
     3    19    20   ar
     4    20    21   ar
     5    21    22   ar
     6    22    23   ar
     7    23    18    1
     8    18     1    1
     9     1     2   ar
    10     2     3   ar
    11     3    11    1
    12    11    12    2
    13    11    13   am
    14    13    15    1
    15    15    16    1
    16    16    17    1
    17     3     4   ar
    18     4     5   ar
    19     5     6   ar
    20     6     7   ar
    21     7     8    1
    22     7     9   ar
    23     9    10   ar
    24    23    24   ar
    25    24    25    1
    26    24    19   ar
    27    10     1   ar
    28    10     4   ar
    29    13    14    1
@<TRIPOS>MOLECULE
*****
 27 29 0 0 0
SMALL
GASTEIGER

@<TRIPOS>ATOM
      1 N          63.2638   89.3282   12.6931 N.ar    1  UNL1       -0.3190
      2 C          63.8455   88.2105   13.5069 C.ar    1  UNL1        0.0823
      3 C          63.3917   86.9139   12.9045 C.ar    1  UNL1        0.0895
      4 C          62.5295   87.2302   11.7185 C.ar    1  UNL1        0.1028
      5 N          61.8063   86.3523   10.7407 N.ar    1  UNL1       -0.2425
      6 C          61.0040   86.9667    9.6322 C.ar    1  UNL1        0.0946
      7 C          60.9249   88.4589    9.5015 C.ar    1  UNL1       -0.0013
      8 C          60.1225   89.0732    8.3929 C.3     1  UNL1        0.0327
      9 C          61.6482   89.3368   10.4793 C.ar    1  UNL1        0.0160
     10 C          62.4505   88.7224   11.5878 C.ar    1  UNL1        0.0780
     11 C          63.7391   85.5417   13.4010 C.2     1  UNL1        0.2489
     12 O          64.4847   85.3777   14.6921 O.2     1  UNL1       -0.2700
     13 N          63.3407   84.3334   12.6063 N.am    1  UNL1       -0.2981
     14 H          62.8514   84.4410   11.7589 H       1  UNL1        0.1498
     15 C          63.6881   82.9612   13.1028 C.3     1  UNL1        0.1280
     16 C          62.9923   81.7598   12.5350 C.3     1  UNL1        0.2144
     17 F          61.5957   81.4270   12.9695 F       1  UNL1       -0.2324
     18 C          63.4608   90.7944   12.9410 C.3     1  UNL1        0.1518
     19 C          66.7985   92.6486   11.8583 C.ar    1  UNL1        0.2234
     20 N          67.6177   92.5097   13.1071 N.ar    1  UNL1       -0.1896
     21 C          67.0514   91.7991   14.3005 C.ar    1  UNL1        0.2012
     22 N          65.6658   91.2273   14.2452 N.ar    1  UNL1       -0.2265
     23 C          64.8465   91.3662   12.9964 C.ar    1  UNL1        0.0841
     24 C          65.4128   92.0769   11.8030 C.ar    1  UNL1        0.0468
     25 C          64.5935   92.2157   10.5542 C.3     1  UNL1        0.0372
     26 C          68.1639   92.5987    9.6486 C.3     1  UNL1        0.2542
     27 O          67.3648   93.3593   10.6649 O.3     1  UNL1       -0.4563
@<TRIPOS>BOND
     1    26    27    1
     2    27    19    1
     3    19    20   ar
     4    20    21   ar
     5    21    22   ar
     6    22    23   ar
     7    23    18    1
     8    18     1    1
     9     1     2   ar
    10     2     3   ar
    11     3    11    1
    12    11    12    2
    13    11    13   am
    14    13    15    1
    15    15    16    1
    16    16    17    1
    17     3     4   ar
    18     4     5   ar
    19     5     6   ar
    20     6     7   ar
    21     7     8    1
    22     7     9   ar
    23     9    10   ar
    24    23    24   ar
    25    24    25    1
    26    24    19   ar
    27    10     1   ar
    28    10     4   ar
    29    13    14    1
@<TRIPOS>MOLECULE
*****
 27 29 0 0 0
SMALL
GASTEIGER

@<TRIPOS>ATOM
      1 N          62.3415   86.1156   10.6436 N.ar    1  UNL1       -0.3190
      2 C          61.3365   86.0634    9.5313 C.ar    1  UNL1        0.0823
      3 C          60.7785   87.4434    9.3457 C.ar    1  UNL1        0.0895
      4 C          61.4388   88.3484   10.3432 C.ar    1  UNL1        0.1028
      5 N          61.2851   89.8137   10.6247 N.ar    1  UNL1       -0.2425
      6 C          62.0975   90.4584   11.7083 C.ar    1  UNL1        0.0946
      7 C          63.0635   89.6378   12.5105 C.ar    1  UNL1       -0.0013
      8 C          63.8759   90.2825   13.5942 C.3     1  UNL1        0.0327
      9 C          63.2171   88.1725   12.2290 C.ar    1  UNL1        0.0160
     10 C          62.4048   87.5278   11.1453 C.ar    1  UNL1        0.0780
     11 C          59.7423   87.8474    8.3392 C.2     1  UNL1        0.2489
     12 O          58.6148   86.9152    8.0080 O.2     1  UNL1       -0.2700
     13 N          59.8335   89.1837    7.6639 N.am    1  UNL1       -0.2981
     14 H          60.5736   89.7956    7.8812 H       1  UNL1        0.1498
     15 C          58.7973   89.5877    6.6574 C.3     1  UNL1        0.1280
     16 C          59.1415   90.5746    5.5815 C.3     1  UNL1        0.2144
     17 F          60.5738   90.7894    5.1913 F       1  UNL1       -0.2324
     18 C          63.1427   84.9588   11.1629 C.3     1  UNL1        0.1518
     19 C          62.4158   82.4132   14.1196 C.ar    1  UNL1        0.2234
     20 N          62.3548   83.3487   15.2906 N.ar    1  UNL1       -0.1896
     21 C          62.5565   84.8209   15.0856 C.ar    1  UNL1        0.2012
     22 N          62.8191   85.3576   13.7098 N.ar    1  UNL1       -0.2265
     23 C          62.8801   84.4221   12.5389 C.ar    1  UNL1        0.0841
     24 C          62.6785   82.9499   12.7438 C.ar    1  UNL1        0.0468
     25 C          62.7395   82.0144   11.5728 C.3     1  UNL1        0.0372
     26 C          60.8422   80.3475   14.2003 C.3     1  UNL1        0.2542
     27 O          62.2142   80.9410   14.3246 O.3     1  UNL1       -0.4563
@<TRIPOS>BOND
     1    26    27    1
     2    27    19    1
     3    19    20   ar
     4    20    21   ar
     5    21    22   ar
     6    22    23   ar
     7    23    18    1
     8    18     1    1
     9     1     2   ar
    10     2     3   ar
    11     3    11    1
    12    11    12    2
    13    11    13   am
    14    13    15    1
    15    15    16    1
    16    16    17    1
    17     3     4   ar
    18     4     5   ar
    19     5     6   ar
    20     6     7   ar
    21     7     8    1
    22     7     9   ar
    23     9    10   ar
    24    23    24   ar
    25    24    25    1
    26    24    19   ar
    27    10     1   ar
    28    10     4   ar
    29    13    14    1
@<TRIPOS>MOLECULE
*****
 27 29 0 0 0
SMALL
GASTEIGER

@<TRIPOS>ATOM
      1 N          62.6892   86.0949   11.8262 N.ar    1  UNL1       -0.3190
      2 C          61.7809   85.7631   10.6795 C.ar    1  UNL1        0.0823
      3 C          61.3382   87.0513   10.0512 C.ar    1  UNL1        0.0895
      4 C          61.9728   88.1791   10.8096 C.ar    1  UNL1        0.1028
      5 N          61.8983   89.6679   10.6430 N.ar    1  UNL1       -0.2425
      6 C          62.6587   90.5657   11.5735 C.ar    1  UNL1        0.0946
      7 C          63.4937   89.9746   12.6705 C.ar    1  UNL1       -0.0013
      8 C          64.2541   90.8725   13.6010 C.3     1  UNL1        0.0327
      9 C          63.5682   88.4858   12.8371 C.ar    1  UNL1        0.0160
     10 C          62.8078   87.5880   11.9067 C.ar    1  UNL1        0.0780
     11 C          60.4218   87.1876    8.8716 C.2     1  UNL1        0.2489
     12 O          59.9498   85.9644    8.1431 O.2     1  UNL1       -0.2700
     13 N          59.9772   88.5474    8.4204 N.am    1  UNL1       -0.2981
     14 H          60.2869   89.3503    8.8985 H       1  UNL1        0.1498
     15 C          59.0607   88.6838    7.2408 C.3     1  UNL1        0.1280
     16 C          59.3342   89.7237    6.1950 C.3     1  UNL1        0.2144
     17 F          58.2066   90.5402    5.6365 F       1  UNL1       -0.2324
     18 C          63.3609   85.1070   12.7333 C.3     1  UNL1        0.1518
     19 C          63.0481   81.3967   11.3597 C.ar    1  UNL1        0.2234
     20 N          62.3014   80.7406   12.4831 N.ar    1  UNL1       -0.1896
     21 C          61.9078   81.5400   13.6898 C.ar    1  UNL1        0.2012
     22 N          62.2610   82.9954   13.7733 N.ar    1  UNL1       -0.2265
     23 C          63.0077   83.6515   12.6499 C.ar    1  UNL1        0.0841
     24 C          63.4013   82.8521   11.4432 C.ar    1  UNL1        0.0468
     25 C          64.1480   83.5083   10.3199 C.3     1  UNL1        0.0372
     26 C          62.7480   79.3018    9.8528 C.3     1  UNL1        0.2542
     27 O          63.4417   80.5974   10.1530 O.3     1  UNL1       -0.4563
@<TRIPOS>BOND
     1    26    27    1
     2    27    19    1
     3    19    20   ar
     4    20    21   ar
     5    21    22   ar
     6    22    23   ar
     7    23    18    1
     8    18     1    1
     9     1     2   ar
    10     2     3   ar
    11     3    11    1
    12    11    12    2
    13    11    13   am
    14    13    15    1
    15    15    16    1
    16    16    17    1
    17     3     4   ar
    18     4     5   ar
    19     5     6   ar
    20     6     7   ar
    21     7     8    1
    22     7     9   ar
    23     9    10   ar
    24    23    24   ar
    25    24    25    1
    26    24    19   ar
    27    10     1   ar
    28    10     4   ar
    29    13    14    1
@<TRIPOS>MOLECULE
*****
 27 29 0 0 0
SMALL
GASTEIGER

@<TRIPOS>ATOM
      1 N          62.6822   86.7872   11.7147 N.ar    1  UNL1       -0.3190
      2 C          63.4420   87.6127   12.7104 C.ar    1  UNL1        0.0823
      3 C          63.1385   89.0571   12.4427 C.ar    1  UNL1        0.0895
      4 C          62.1912   89.1243   11.2816 C.ar    1  UNL1        0.1028
      5 N          61.5490   90.2816   10.5760 N.ar    1  UNL1       -0.2425
      6 C          60.6247   90.0361    9.4204 C.ar    1  UNL1        0.0946
      7 C          60.3427   88.6332    8.9704 C.ar    1  UNL1       -0.0013
      8 C          59.4184   88.3877    7.8148 C.3     1  UNL1        0.0327
      9 C          60.9850   87.4759    9.6761 C.ar    1  UNL1        0.0160
     10 C          61.9092   87.7214   10.8317 C.ar    1  UNL1        0.0780
     11 C          63.6862   90.2286   13.2027 C.2     1  UNL1        0.2489
     12 O          63.1780   90.5326   14.5807 O.2     1  UNL1       -0.2700
     13 N          64.7422   91.0963   12.5844 N.am    1  UNL1       -0.2981
     14 H          65.0758   90.8969   11.6799 H       1  UNL1        0.1498
     15 C          65.2899   92.2679   13.3444 C.3     1  UNL1        0.1280
     16 C          66.7119   92.2539   13.8213 C.3     1  UNL1        0.2144
     17 F          67.7985   91.7383   12.9249 F       1  UNL1       -0.2324
     18 C          62.6935   85.2903   11.6189 C.3     1  UNL1        0.1518
     19 C          63.1302   82.1552   14.0128 C.ar    1  UNL1        0.2234
     20 N          62.9563   82.7983   15.3567 N.ar    1  UNL1       -0.1896
     21 C          62.6949   84.2721   15.4547 C.ar    1  UNL1        0.2012
     22 N          62.6073   85.1028   14.2088 N.ar    1  UNL1       -0.2265
     23 C          62.7811   84.4596   12.8649 C.ar    1  UNL1        0.0841
     24 C          63.0426   82.9859   12.7669 C.ar    1  UNL1        0.0468
     25 C          63.2164   82.3428   11.4229 C.3     1  UNL1        0.0372
     26 C          62.2904   79.7501   13.5024 C.3     1  UNL1        0.2542
     27 O          63.3916   80.6814   13.9148 O.3     1  UNL1       -0.4563
@<TRIPOS>BOND
     1    26    27    1
     2    27    19    1
     3    19    20   ar
     4    20    21   ar
     5    21    22   ar
     6    22    23   ar
     7    23    18    1
     8    18     1    1
     9     1     2   ar
    10     2     3   ar
    11     3    11    1
    12    11    12    2
    13    11    13   am
    14    13    15    1
    15    15    16    1
    16    16    17    1
    17     3     4   ar
    18     4     5   ar
    19     5     6   ar
    20     6     7   ar
    21     7     8    1
    22     7     9   ar
    23     9    10   ar
    24    23    24   ar
    25    24    25    1
    26    24    19   ar
    27    10     1   ar
    28    10     4   ar
    29    13    14    1
