@<TRIPOS>MOLECULE
*****
 28 31 0 0 0
SMALL
GASTEIGER

@<TRIPOS>ATOM
      1 C          62.4091   86.5971   10.8066 C.ar    1  UNL1        0.2490
      2 N          62.0780   87.0438    9.4135 N.ar    1  UNL1       -0.1863
      3 C          62.3272   86.1271    8.2527 C.ar    1  UNL1        0.2225
      4 N          62.9075   84.7636    8.4850 N.ar    1  UNL1       -0.1420
      5 N          63.2387   84.3168    9.8781 N.ar    1  UNL1       -0.2193
      6 C          63.8162   83.0395   10.4119 C.ar    1  UNL1        0.1371
      7 C          63.9239   83.1668   11.9026 C.ar    1  UNL1        0.1553
      8 C          63.4130   84.5228   12.2900 C.ar    1  UNL1        0.0359
      9 C          63.3386   85.0718   13.6840 C.3     1  UNL1        0.0360
     10 C          62.9895   85.2336   11.0389 C.ar    1  UNL1        0.1353
     11 O          62.1599   87.5139   11.9674 O.3     1  UNL1       -0.4328
     12 C          66.8140   93.2592   14.6046 C.3     1  UNL1        0.0521
     13 C          65.8722   92.3418   13.8825 C.2     1  UNL1        0.0591
     14 C          65.4674   90.9670   14.3254 C.2     1  UNL1        0.0182
     15 C          64.5148   90.4137   13.3073 C.2     1  UNL1        0.0455
     16 C          63.7912   89.1028   13.2181 C.2     1  UNL1        0.1752
     17 F          63.9751   88.0701   14.2903 F       1  UNL1       -0.2009
     18 C          62.8836   88.8247   12.0566 C.2     1  UNL1        0.1706
     19 C          62.6997   89.8575   10.9844 C.2     1  UNL1        0.0201
     20 C          63.4234   91.1684   11.0737 C.3     1  UNL1        0.0751
     21 C          64.3309   91.4464   12.2351 C.2     1  UNL1        0.0653
     22 N          65.1698   92.6380   12.5906 N.2     1  UNL1       -0.2536
     23 O          64.4502   82.1216   12.8410 O.3     1  UNL1       -0.4715
     24 C          63.5332   81.0594   13.3710 C.3     1  UNL1        0.2344
     25 C          62.3760   81.4367   14.2477 C.3     1  UNL1        0.1541
     26 C          61.0084   80.8914   13.9603 C.3     1  UNL1        0.0357
     27 O          62.5863   82.3591   15.4116 O.3     1  UNL1       -0.3806
     28 H          61.7429   82.4988   15.8699 H       1  UNL1        0.2105
@<TRIPOS>BOND
     1    12    13    1
     2    13    14    2
     3    14    15    1
     4    15    16    2
     5    16    17    1
     6    16    18    1
     7    18    11    1
     8    11     1    1
     9     1     2   ar
    10     2     3   ar
    11     3     4   ar
    12     4     5   ar
    13     5     6   ar
    14     6     7   ar
    15     7    23    1
    16    23    24    1
    17    24    25    1
    18    25    26    1
    19    25    27    1
    20     7     8   ar
    21     8     9    1
    22     8    10   ar
    23    18    19    2
    24    19    20    1
    25    20    21    1
    26    21    22    2
    27    22    13    1
    28    21    15    1
    29    10     1   ar
    30    10     5   ar
    31    27    28    1
@<TRIPOS>MOLECULE
*****
 28 31 0 0 0
SMALL
GASTEIGER

@<TRIPOS>ATOM
      1 C          61.8974   88.0827   11.5333 C.ar    1  UNL1        0.2490
      2 N          62.6861   86.9196   12.0577 N.ar    1  UNL1       -0.1863
      3 C          62.7187   85.6296   11.2930 C.ar    1  UNL1        0.2225
      4 N          61.9625   85.5027   10.0038 N.ar    1  UNL1       -0.1420
      5 N          61.1738   86.6657    9.4794 N.ar    1  UNL1       -0.2193
      6 C          60.3355   86.8361    8.2472 C.ar    1  UNL1        0.1371
      7 C          59.7848   88.2313    8.2503 C.ar    1  UNL1        0.1553
      8 C          60.2828   88.9233    9.4845 C.ar    1  UNL1        0.0359
      9 C          59.9762   90.3350    9.8883 C.3     1  UNL1        0.0360
     10 C          61.1412   87.9557   10.2441 C.ar    1  UNL1        0.1353
     11 O          61.8648   89.3727   12.2980 O.3     1  UNL1       -0.4328
     12 C          68.3879   92.8421   14.9505 C.3     1  UNL1        0.0521
     13 C          67.1895   92.3335   14.2053 C.2     1  UNL1        0.0591
     14 C          66.1880   91.3415   14.7182 C.2     1  UNL1        0.0182
     15 C          65.1618   91.1224   13.6463 C.2     1  UNL1        0.0455
     16 C          63.9404   90.2537   13.5887 C.2     1  UNL1        0.1752
     17 F          63.5731   89.3971   14.7640 F       1  UNL1       -0.2009
     18 C          63.0862   90.2414   12.3557 C.2     1  UNL1        0.1706
     19 C          63.4534   91.0980   11.1803 C.2     1  UNL1        0.0201
     20 C          64.6749   91.9668   11.2380 C.3     1  UNL1        0.0751
     21 C          65.5291   91.9790   12.4710 C.2     1  UNL1        0.0653
     22 N          66.7822   92.7274   12.8165 N.2     1  UNL1       -0.2536
     23 O          58.8928   88.8296    7.2032 O.3     1  UNL1       -0.4715
     24 C          59.4448   89.8272    6.2286 C.3     1  UNL1        0.2344
     25 C          58.5221   90.7767    5.5236 C.3     1  UNL1        0.1541
     26 C          59.0833   91.9363    4.7551 C.3     1  UNL1        0.0357
     27 O          57.0383   90.5668    5.5872 O.3     1  UNL1       -0.3806
     28 H          56.5912   91.2639    5.0822 H       1  UNL1        0.2105
@<TRIPOS>BOND
     1    12    13    1
     2    13    14    2
     3    14    15    1
     4    15    16    2
     5    16    17    1
     6    16    18    1
     7    18    11    1
     8    11     1    1
     9     1     2   ar
    10     2     3   ar
    11     3     4   ar
    12     4     5   ar
    13     5     6   ar
    14     6     7   ar
    15     7    23    1
    16    23    24    1
    17    24    25    1
    18    25    26    1
    19    25    27    1
    20     7     8   ar
    21     8     9    1
    22     8    10   ar
    23    18    19    2
    24    19    20    1
    25    20    21    1
    26    21    22    2
    27    22    13    1
    28    21    15    1
    29    10     1   ar
    30    10     5   ar
    31    27    28    1
@<TRIPOS>MOLECULE
*****
 28 31 0 0 0
SMALL
GASTEIGER

@<TRIPOS>ATOM
      1 C          61.5971   89.2334   11.5705 C.ar    1  UNL1        0.2490
      2 N          60.7510   90.2217   10.8241 N.ar    1  UNL1       -0.1863
      3 C          60.1115   89.8312    9.5247 C.ar    1  UNL1        0.2225
      4 N          60.3181   88.4523    8.9717 N.ar    1  UNL1       -0.1420
      5 N          61.1643   87.4639    9.7180 N.ar    1  UNL1       -0.2193
      6 C          61.5447   86.0434    9.4227 C.ar    1  UNL1        0.1371
      7 C          62.4194   85.5559   10.5395 C.ar    1  UNL1        0.1553
      8 C          62.5795   86.6752   11.5252 C.ar    1  UNL1        0.0359
      9 C          63.3755   86.6243   12.7955 C.3     1  UNL1        0.0360
     10 C          61.8038   87.8545   11.0175 C.ar    1  UNL1        0.1353
     11 O          62.2366   89.6239   12.8700 O.3     1  UNL1       -0.4328
     12 C          68.8871   93.0461   15.2540 C.3     1  UNL1        0.0521
     13 C          67.6604   92.5395   14.5551 C.2     1  UNL1        0.0591
     14 C          66.6570   91.5784   15.1203 C.2     1  UNL1        0.0182
     15 C          65.5982   91.3500   14.0827 C.2     1  UNL1        0.0455
     16 C          64.3614   90.5013   14.0807 C.2     1  UNL1        0.1752
     17 F          64.0125   89.6813   15.2873 F       1  UNL1       -0.2009
     18 C          63.4734   90.4726   12.8720 C.2     1  UNL1        0.1706
     19 C          63.8223   91.2926   11.6654 C.2     1  UNL1        0.0201
     20 C          65.0592   92.1413   11.6675 C.3     1  UNL1        0.0751
     21 C          65.9471   92.1700   12.8761 C.2     1  UNL1        0.0653
     22 N          67.2216   92.9051   13.1681 N.2     1  UNL1       -0.2536
     23 O          63.0272   84.1891   10.6512 O.3     1  UNL1       -0.4715
     24 C          62.7106   83.3218   11.8333 C.3     1  UNL1        0.2344
     25 C          63.6645   82.2407   12.2473 C.3     1  UNL1        0.1541
     26 C          63.1505   81.0078   12.9298 C.3     1  UNL1        0.0357
     27 O          65.1324   82.3926   11.9788 O.3     1  UNL1       -0.3806
     28 H          65.6037   81.6108   12.3069 H       1  UNL1        0.2105
@<TRIPOS>BOND
     1    12    13    1
     2    13    14    2
     3    14    15    1
     4    15    16    2
     5    16    17    1
     6    16    18    1
     7    18    11    1
     8    11     1    1
     9     1     2   ar
    10     2     3   ar
    11     3     4   ar
    12     4     5   ar
    13     5     6   ar
    14     6     7   ar
    15     7    23    1
    16    23    24    1
    17    24    25    1
    18    25    26    1
    19    25    27    1
    20     7     8   ar
    21     8     9    1
    22     8    10   ar
    23    18    19    2
    24    19    20    1
    25    20    21    1
    26    21    22    2
    27    22    13    1
    28    21    15    1
    29    10     1   ar
    30    10     5   ar
    31    27    28    1
@<TRIPOS>MOLECULE
*****
 28 31 0 0 0
SMALL
GASTEIGER

@<TRIPOS>ATOM
      1 C          62.5418   86.8330   11.8896 C.ar    1  UNL1        0.2490
      2 N          61.6846   86.2265   10.8185 N.ar    1  UNL1       -0.1863
      3 C          61.0258   87.1059    9.7975 C.ar    1  UNL1        0.2225
      4 N          61.2240   88.5918    9.8476 N.ar    1  UNL1       -0.1420
      5 N          62.0811   89.1984   10.9187 N.ar    1  UNL1       -0.2193
      6 C          62.4570   90.6192   11.2189 C.ar    1  UNL1        0.1371
      7 C          63.3482   90.6179   12.4254 C.ar    1  UNL1        0.1553
      8 C          63.5231   89.1963   12.8709 C.ar    1  UNL1        0.0359
      9 C          64.3381   88.7332   14.0420 C.3     1  UNL1        0.0360
     10 C          62.7400   88.3190   11.9397 C.ar    1  UNL1        0.1353
     11 O          63.2007   85.9536   12.9107 O.3     1  UNL1       -0.4328
     12 C          62.8838   78.5643   10.2801 C.3     1  UNL1        0.0521
     13 C          62.8509   79.8627   11.0303 C.2     1  UNL1        0.0591
     14 C          63.2246   81.2078   10.4816 C.2     1  UNL1        0.0182
     15 C          63.0432   82.2205   11.5732 C.2     1  UNL1        0.0455
     16 C          63.2576   83.7046   11.6112 C.2     1  UNL1        0.1752
     17 F          63.7435   84.4238   10.3878 F       1  UNL1       -0.2009
     18 C          62.9862   84.4695   12.8727 C.2     1  UNL1        0.1706
     19 C          62.5004   83.7503   14.0961 C.2     1  UNL1        0.0201
     20 C          62.2860   82.2662   14.0580 C.3     1  UNL1        0.0751
     21 C          62.5574   81.5013   12.7966 C.2     1  UNL1        0.0653
     22 N          62.4385   80.0441   12.4611 N.2     1  UNL1       -0.2536
     23 O          63.9576   91.8260   13.0728 O.3     1  UNL1       -0.4715
     24 C          65.2815   92.3452   12.5956 C.3     1  UNL1        0.2344
     25 C          66.3339   92.7411   13.5884 C.3     1  UNL1        0.1541
     26 C          67.6158   91.9666   13.6715 C.3     1  UNL1        0.0357
     27 O          66.1044   93.9114   14.4981 O.3     1  UNL1       -0.3806
     28 H          66.8766   94.0304   15.0730 H       1  UNL1        0.2105
@<TRIPOS>BOND
     1    12    13    1
     2    13    14    2
     3    14    15    1
     4    15    16    2
     5    16    17    1
     6    16    18    1
     7    18    11    1
     8    11     1    1
     9     1     2   ar
    10     2     3   ar
    11     3     4   ar
    12     4     5   ar
    13     5     6   ar
    14     6     7   ar
    15     7    23    1
    16    23    24    1
    17    24    25    1
    18    25    26    1
    19    25    27    1
    20     7     8   ar
    21     8     9    1
    22     8    10   ar
    23    18    19    2
    24    19    20    1
    25    20    21    1
    26    21    22    2
    27    22    13    1
    28    21    15    1
    29    10     1   ar
    30    10     5   ar
    31    27    28    1
@<TRIPOS>MOLECULE
*****
 28 31 0 0 0
SMALL
GASTEIGER

@<TRIPOS>ATOM
      1 C          62.7104   87.5458   11.8845 C.ar    1  UNL1        0.2490
      2 N          61.9144   87.1093   10.6905 N.ar    1  UNL1       -0.1863
      3 C          61.5166   88.1110    9.6473 C.ar    1  UNL1        0.2225
      4 N          61.9149   89.5493    9.7981 N.ar    1  UNL1       -0.1420
      5 N          62.7109   89.9858   10.9921 N.ar    1  UNL1       -0.2193
      6 C          63.2437   91.3248   11.4082 C.ar    1  UNL1        0.1371
      7 C          63.9708   91.1507   12.7086 C.ar    1  UNL1        0.1553
      8 C          63.8873   89.7040   13.0962 C.ar    1  UNL1        0.0359
      9 C          64.4787   89.0858   14.3283 C.3     1  UNL1        0.0360
     10 C          63.1086   88.9841   12.0353 C.ar    1  UNL1        0.1353
     11 O          63.1082   86.5441   12.9278 O.3     1  UNL1       -0.4328
     12 C          62.0123   78.8107   13.7129 C.3     1  UNL1        0.0521
     13 C          62.3110   80.2207   13.2976 C.2     1  UNL1        0.0591
     14 C          62.1317   81.4460   14.1441 C.2     1  UNL1        0.0182
     15 C          62.5514   82.6356   13.3326 C.2     1  UNL1        0.0455
     16 C          62.5907   84.1018   13.6470 C.2     1  UNL1        0.1752
     17 F          62.1519   84.5918   14.9951 F       1  UNL1       -0.2009
     18 C          63.0688   85.0780   12.6133 C.2     1  UNL1        0.1706
     19 C          63.5076   84.5880   11.2652 C.2     1  UNL1        0.0201
     20 C          63.4683   83.1218   10.9508 C.3     1  UNL1        0.0751
     21 C          62.9902   82.1457   11.9845 C.2     1  UNL1        0.0653
     22 N          62.8416   80.6532   11.9629 N.2     1  UNL1       -0.2536
     23 O          64.6604   92.2331   13.4851 O.3     1  UNL1       -0.4715
     24 C          66.0007   92.7381   13.0397 C.3     1  UNL1        0.2344
     25 C          67.2526   92.0625   13.5153 C.3     1  UNL1        0.1541
     26 C          67.3614   91.6006   14.9384 C.3     1  UNL1        0.0357
     27 O          68.3958   91.8487   12.5680 O.3     1  UNL1       -0.3806
     28 H          69.1212   91.4022   13.0322 H       1  UNL1        0.2105
@<TRIPOS>BOND
     1    12    13    1
     2    13    14    2
     3    14    15    1
     4    15    16    2
     5    16    17    1
     6    16    18    1
     7    18    11    1
     8    11     1    1
     9     1     2   ar
    10     2     3   ar
    11     3     4   ar
    12     4     5   ar
    13     5     6   ar
    14     6     7   ar
    15     7    23    1
    16    23    24    1
    17    24    25    1
    18    25    26    1
    19    25    27    1
    20     7     8   ar
    21     8     9    1
    22     8    10   ar
    23    18    19    2
    24    19    20    1
    25    20    21    1
    26    21    22    2
    27    22    13    1
    28    21    15    1
    29    10     1   ar
    30    10     5   ar
    31    27    28    1
@<TRIPOS>MOLECULE
*****
 28 31 0 0 0
SMALL
GASTEIGER

@<TRIPOS>ATOM
      1 C          63.1773   88.5680   12.5379 C.ar    1  UNL1        0.2490
      2 N          62.4350   88.0508   11.3415 N.ar    1  UNL1       -0.1863
      3 C          62.2990   88.9053   10.1162 C.ar    1  UNL1        0.2225
      4 N          62.9053   90.2770   10.0873 N.ar    1  UNL1       -0.1420
      5 N          63.6477   90.7941   11.2837 N.ar    1  UNL1       -0.2193
      6 C          64.3463   92.0953   11.5462 C.ar    1  UNL1        0.1371
      7 C          64.9141   92.0450   12.9337 C.ar    1  UNL1        0.1553
      8 C          64.5664   90.7127   13.5287 C.ar    1  UNL1        0.0359
      9 C          64.9363   90.2370   14.9023 C.3     1  UNL1        0.0360
     10 C          63.7837   89.9396   12.5090 C.ar    1  UNL1        0.1353
     11 O          63.3133   87.7135   13.7632 O.3     1  UNL1       -0.4328
     12 C          62.8892   80.1838   11.5845 C.3     1  UNL1        0.0521
     13 C          63.2048   81.5387   12.1452 C.2     1  UNL1        0.0591
     14 C          62.4217   82.7957   11.9072 C.2     1  UNL1        0.0182
     15 C          63.0919   83.9085   12.6572 C.2     1  UNL1        0.0455
     16 C          62.7666   85.3666   12.7920 C.2     1  UNL1        0.1752
     17 F          61.5692   85.9358   12.0904 F       1  UNL1       -0.2009
     18 C          63.6386   86.2554   13.6284 C.2     1  UNL1        0.1706
     19 C          64.8360   85.6861   14.3300 C.2     1  UNL1        0.0201
     20 C          65.1613   84.2280   14.1952 C.3     1  UNL1        0.0751
     21 C          64.2893   83.3392   13.3588 C.2     1  UNL1        0.0653
     22 N          64.3591   81.8747   13.0424 N.2     1  UNL1       -0.2536
     23 O          65.6928   93.1355   13.6077 O.3     1  UNL1       -0.4715
     24 C          67.0964   92.8789   14.0703 C.3     1  UNL1        0.2344
     25 C          67.4837   93.1716   15.4896 C.3     1  UNL1        0.1541
     26 C          68.9036   93.5227   15.8224 C.3     1  UNL1        0.0357
     27 O          66.4511   93.1132   16.5761 O.3     1  UNL1       -0.3806
     28 H          66.8647   93.3273   17.4270 H       1  UNL1        0.2105
@<TRIPOS>BOND
     1    12    13    1
     2    13    14    2
     3    14    15    1
     4    15    16    2
     5    16    17    1
     6    16    18    1
     7    18    11    1
     8    11     1    1
     9     1     2   ar
    10     2     3   ar
    11     3     4   ar
    12     4     5   ar
    13     5     6   ar
    14     6     7   ar
    15     7    23    1
    16    23    24    1
    17    24    25    1
    18    25    26    1
    19    25    27    1
    20     7     8   ar
    21     8     9    1
    22     8    10   ar
    23    18    19    2
    24    19    20    1
    25    20    21    1
    26    21    22    2
    27    22    13    1
    28    21    15    1
    29    10     1   ar
    30    10     5   ar
    31    27    28    1
@<TRIPOS>MOLECULE
*****
 28 31 0 0 0
SMALL
GASTEIGER

@<TRIPOS>ATOM
      1 C          46.4271   74.5367   19.0545 C.ar    1  UNL1        0.2490
      2 N          47.6791   73.8575   19.5248 N.ar    1  UNL1       -0.1863
      3 C          48.9157   74.6641   19.7899 C.ar    1  UNL1        0.2225
      4 N          48.9003   76.1499   19.5848 N.ar    1  UNL1       -0.1420
      5 N          47.6483   76.8291   19.1145 N.ar    1  UNL1       -0.2193
      6 C          47.3344   78.2671   18.8255 C.ar    1  UNL1        0.1371
      7 C          45.9039   78.3493   18.3818 C.ar    1  UNL1        0.1553
      8 C          45.3337   76.9620   18.3965 C.ar    1  UNL1        0.0359
      9 C          43.9315   76.5811   18.0239 C.3     1  UNL1        0.0360
     10 C          46.4117   76.0225   18.8494 C.ar    1  UNL1        0.1353
     11 O          45.1906   73.7301   18.7894 O.3     1  UNL1       -0.4328
     12 C          46.0621   68.4635   13.0338 C.3     1  UNL1        0.0521
     13 C          45.7083   69.5943   13.9537 C.2     1  UNL1        0.0591
     14 C          46.2656   69.8204   15.3278 C.2     1  UNL1        0.0182
     15 C          45.6368   71.0633   15.8844 C.2     1  UNL1        0.0455
     16 C          45.8034   71.7715   17.1961 C.2     1  UNL1        0.1752
     17 F          46.7494   71.2294   18.2263 F       1  UNL1       -0.2009
     18 C          45.0240   73.0219   17.4777 C.2     1  UNL1        0.1706
     19 C          44.0780   73.5640   16.4475 C.2     1  UNL1        0.0201
     20 C          43.9115   72.8557   15.1357 C.3     1  UNL1        0.0751
     21 C          44.6908   71.6054   14.8542 C.2     1  UNL1        0.0653
     22 N          44.7350   70.6975   13.6610 N.2     1  UNL1       -0.2536
     23 O          45.1722   79.5993   17.9918 O.3     1  UNL1       -0.4715
     24 C          45.8763   80.9232   18.0292 C.3     1  UNL1        0.2344
     25 C          46.1597   81.5851   19.3450 C.3     1  UNL1        0.1541
     26 C          45.3472   81.2283   20.5544 C.3     1  UNL1        0.0357
     27 O          47.2554   82.6039   19.4516 O.3     1  UNL1       -0.3806
     28 H          47.3054   82.9309   20.3634 H       1  UNL1        0.2105
@<TRIPOS>BOND
     1    12    13    1
     2    13    14    2
     3    14    15    1
     4    15    16    2
     5    16    17    1
     6    16    18    1
     7    18    11    1
     8    11     1    1
     9     1     2   ar
    10     2     3   ar
    11     3     4   ar
    12     4     5   ar
    13     5     6   ar
    14     6     7   ar
    15     7    23    1
    16    23    24    1
    17    24    25    1
    18    25    26    1
    19    25    27    1
    20     7     8   ar
    21     8     9    1
    22     8    10   ar
    23    18    19    2
    24    19    20    1
    25    20    21    1
    26    21    22    2
    27    22    13    1
    28    21    15    1
    29    10     1   ar
    30    10     5   ar
    31    27    28    1
@<TRIPOS>MOLECULE
*****
 28 31 0 0 0
SMALL
GASTEIGER

@<TRIPOS>ATOM
      1 C          63.0332   89.4876   12.3541 C.ar    1  UNL1        0.2490
      2 N          62.0270   89.0532   11.3300 N.ar    1  UNL1       -0.1863
      3 C          61.8815   89.8200   10.0491 C.ar    1  UNL1        0.2225
      4 N          62.7422   91.0213    9.7922 N.ar    1  UNL1       -0.1420
      5 N          63.7484   91.4557   10.8163 N.ar    1  UNL1       -0.2193
      6 C          64.7286   92.5908   10.8417 C.ar    1  UNL1        0.1371
      7 C          65.4799   92.5256   12.1384 C.ar    1  UNL1        0.1553
      8 C          64.9640   91.3501   12.9143 C.ar    1  UNL1        0.0359
      9 C          65.4355   90.9126   14.2694 C.3     1  UNL1        0.0360
     10 C          63.8939   90.6889   12.0972 C.ar    1  UNL1        0.1353
     11 O          63.1787   88.7207   13.6350 O.3     1  UNL1       -0.4328
     12 C          63.1910   81.1358   11.6124 C.3     1  UNL1        0.0521
     13 C          63.3929   82.5069   12.1862 C.2     1  UNL1        0.0591
     14 C          62.6626   83.7510   11.7752 C.2     1  UNL1        0.0182
     15 C          63.1789   84.8877   12.6067 C.2     1  UNL1        0.0455
     16 C          62.8290   86.3459   12.6411 C.2     1  UNL1        0.1752
     17 F          61.7797   86.8874   11.7162 F       1  UNL1       -0.2009
     18 C          63.5285   87.2626   13.6006 C.2     1  UNL1        0.1706
     19 C          64.5779   86.7210   14.5256 C.2     1  UNL1        0.0201
     20 C          64.9277   85.2627   14.4911 C.3     1  UNL1        0.0751
     21 C          64.2282   84.3461   13.5317 C.2     1  UNL1        0.0653
     22 N          64.3604   82.8747   13.2718 N.2     1  UNL1       -0.2536
     23 O          66.5579   93.4700   12.5813 O.3     1  UNL1       -0.4715
     24 C          66.3999   94.9451   12.3603 C.3     1  UNL1        0.2344
     25 C          66.6715   95.5342   11.0078 C.3     1  UNL1        0.1541
     26 C          66.0678   96.8544   10.6298 C.3     1  UNL1        0.0357
     27 O          67.5467   94.8032   10.0334 O.3     1  UNL1       -0.3806
     28 H          67.6185   95.3177    9.2142 H       1  UNL1        0.2105
@<TRIPOS>BOND
     1    12    13    1
     2    13    14    2
     3    14    15    1
     4    15    16    2
     5    16    17    1
     6    16    18    1
     7    18    11    1
     8    11     1    1
     9     1     2   ar
    10     2     3   ar
    11     3     4   ar
    12     4     5   ar
    13     5     6   ar
    14     6     7   ar
    15     7    23    1
    16    23    24    1
    17    24    25    1
    18    25    26    1
    19    25    27    1
    20     7     8   ar
    21     8     9    1
    22     8    10   ar
    23    18    19    2
    24    19    20    1
    25    20    21    1
    26    21    22    2
    27    22    13    1
    28    21    15    1
    29    10     1   ar
    30    10     5   ar
    31    27    28    1
@<TRIPOS>MOLECULE
*****
 28 31 0 0 0
SMALL
GASTEIGER

@<TRIPOS>ATOM
      1 C          62.2170   85.9219    8.9768 C.ar    1  UNL1        0.2490
      2 N          61.9060   84.9090    7.9152 N.ar    1  UNL1       -0.1863
      3 C          60.7990   85.1648    6.9358 C.ar    1  UNL1        0.2225
      4 N          60.0032   86.4336    7.0180 N.ar    1  UNL1       -0.1420
      5 N          60.3143   87.4465    8.0797 N.ar    1  UNL1       -0.2193
      6 C          59.7060   88.7785    8.4052 C.ar    1  UNL1        0.1371
      7 C          60.4370   89.3459    9.5857 C.ar    1  UNL1        0.1553
      8 C          61.4971   88.3645    9.9898 C.ar    1  UNL1        0.0359
      9 C          62.4634   88.5283   11.1254 C.3     1  UNL1        0.0360
     10 C          61.4212   87.1907    9.0591 C.ar    1  UNL1        0.1353
     11 O          63.3240   85.6661    9.9562 O.3     1  UNL1       -0.4328
     12 C          62.4968   79.1180   14.2060 C.3     1  UNL1        0.0521
     13 C          62.6060   80.5042   13.6436 C.2     1  UNL1        0.0591
     14 C          62.8857   80.8555   12.2124 C.2     1  UNL1        0.0182
     15 C          62.9072   82.3510   12.0978 C.2     1  UNL1        0.0455
     16 C          63.1349   83.2650   10.9305 C.2     1  UNL1        0.1752
     17 F          63.4014   82.6920    9.5700 F       1  UNL1       -0.2009
     18 C          63.0962   84.7521   11.1235 C.2     1  UNL1        0.1706
     19 C          62.8298   85.3251   12.4839 C.2     1  UNL1        0.0201
     20 C          62.6021   84.4110   13.6513 C.3     1  UNL1        0.0751
     21 C          62.6408   82.9240   13.4582 C.2     1  UNL1        0.0653
     22 N          62.4546   81.7826   14.4135 N.2     1  UNL1       -0.2536
     23 O          60.1571   90.6632   10.2461 O.3     1  UNL1       -0.4715
     24 C          59.1974   90.7366   11.3965 C.3     1  UNL1        0.2344
     25 C          59.3493   89.8031   12.5608 C.3     1  UNL1        0.1541
     26 C          58.2598   88.8242   12.8844 C.3     1  UNL1        0.0357
     27 O          60.5908   89.8484   13.4014 O.3     1  UNL1       -0.3806
     28 H          60.5284   89.1850   14.1063 H       1  UNL1        0.2105
@<TRIPOS>BOND
     1    12    13    1
     2    13    14    2
     3    14    15    1
     4    15    16    2
     5    16    17    1
     6    16    18    1
     7    18    11    1
     8    11     1    1
     9     1     2   ar
    10     2     3   ar
    11     3     4   ar
    12     4     5   ar
    13     5     6   ar
    14     6     7   ar
    15     7    23    1
    16    23    24    1
    17    24    25    1
    18    25    26    1
    19    25    27    1
    20     7     8   ar
    21     8     9    1
    22     8    10   ar
    23    18    19    2
    24    19    20    1
    25    20    21    1
    26    21    22    2
    27    22    13    1
    28    21    15    1
    29    10     1   ar
    30    10     5   ar
    31    27    28    1
