@<TRIPOS>MOLECULE
*****
 38 41 0 0 0
SMALL
GASTEIGER

@<TRIPOS>ATOM
      1 C          62.8444   88.5909   12.6900 C.3     1  UNL1        0.1529
      2 N          62.3172   87.8316   10.2619 N.am    1  UNL1       -0.3046
      3 C          61.8465   88.2472   11.6241 C.2     1  UNL1        0.2406
      4 O          60.3778   88.3191   11.9205 O.2     1  UNL1       -0.2733
      5 H          63.2812   87.7844   10.0674 H       1  UNL1        0.1494
      6 N          58.6090   89.2948    6.9290 N.3     1  UNL1       -0.3221
      7 C          59.4652   88.2195    7.5296 C.3     1  UNL1        0.0524
      8 C          59.3235   86.8006    7.0643 C.3     1  UNL1        0.0156
      9 C          60.1797   85.7253    7.6649 C.3     1  UNL1        0.0031
     10 C          61.1776   86.0690    8.7307 C.3     1  UNL1        0.0197
     11 C          61.3193   87.4879    9.1960 C.3     1  UNL1        0.0729
     12 C          60.4631   88.5632    8.5954 C.3     1  UNL1        0.0350
     13 H          57.9931   88.8861    6.2261 H       1  UNL1        0.1188
     14 H          59.2039   89.9987    6.4918 H       1  UNL1        0.1188
     15 N          63.7313   87.5235   13.2593 N.am    1  UNL1       -0.2978
     16 C          63.3155   86.0842   13.1844 C.2     1  UNL1        0.2257
     17 O          62.0129   85.7123   12.5403 O.2     1  UNL1       -0.2748
     18 H          64.5862   87.7676   13.6821 H       1  UNL1        0.1498
     19 C          64.2024   85.0168   13.7537 C.3     1  UNL1        0.0884
     20 C          65.2053   84.3437   14.6431 C.3     1  UNL1        0.0135
     21 C          64.8447   85.7814   14.8730 C.3     1  UNL1        0.0135
     22 C          63.8681   83.8814   12.8322 C.ar    1  UNL1       -0.0040
     23 C          64.5044   83.8040   11.4760 C.ar    1  UNL1       -0.0021
     24 C          64.1701   82.6687   10.5545 C.ar    1  UNL1        0.0111
     25 C          63.1996   81.6108   10.9891 C.ar    1  UNL1        0.0585
     26 CL         62.8653   80.4755   10.0675 Cl      1  UNL1       -0.0822
     27 C          62.5633   81.6882   12.3452 C.ar    1  UNL1        0.0225
     28 C          62.8976   82.8236   13.2668 C.ar    1  UNL1        0.0550
     29 CL         62.2613   82.9010   14.6230 Cl      1  UNL1       -0.0825
     30 C          62.9554   90.0019   13.1865 C.3     1  UNL1        0.0562
     31 C          63.9301   90.9469   12.5487 C.ar    1  UNL1       -0.0094
     32 C          63.7605   91.3425   11.1117 C.ar    1  UNL1       -0.0025
     33 C          64.7352   92.2874   10.4739 C.ar    1  UNL1        0.0111
     34 C          65.8796   92.8369   11.2729 C.ar    1  UNL1        0.0585
     35 CL         66.8543   93.7819   10.6351 Cl      1  UNL1       -0.0822
     36 C          66.0492   92.4415   12.7098 C.ar    1  UNL1        0.0225
     37 C          65.0745   91.4964   13.3478 C.ar    1  UNL1        0.0546
     38 CL         65.2441   91.1010   14.7847 Cl      1  UNL1       -0.0825
@<TRIPOS>BOND
     1     6     7    1
     2     7     8    1
     3     8     9    1
     4     9    10    1
     5    10    11    1
     6    11     2    1
     7     2     3   am
     8     3     4    2
     9     3     1    1
    10     1    30    1
    11    30    31    1
    12    31    32   ar
    13    32    33   ar
    14    33    34   ar
    15    34    35    1
    16    34    36   ar
    17    36    37   ar
    18    37    38    1
    19     1    15    1
    20    15    16   am
    21    16    17    2
    22    16    19    1
    23    19    22    1
    24    22    23   ar
    25    23    24   ar
    26    24    25   ar
    27    25    26    1
    28    25    27   ar
    29    27    28   ar
    30    28    29    1
    31    19    20    1
    32    20    21    1
    33    11    12    1
    34    12     7    1
    35    37    31   ar
    36    21    19    1
    37    28    22   ar
    38     6    13    1
    39     6    14    1
    40     2     5    1
    41    15    18    1
@<TRIPOS>MOLECULE
*****
 38 41 0 0 0
SMALL
GASTEIGER

@<TRIPOS>ATOM
      1 C          63.8562   90.7146   12.7716 C.3     1  UNL1        0.1529
      2 N          65.7786   92.2502   11.9372 N.am    1  UNL1       -0.3046
      3 C          64.4295   91.6284   11.7293 C.2     1  UNL1        0.2406
      4 O          63.6537   91.9204   10.4792 O.2     1  UNL1       -0.2733
      5 H          66.2878   92.0586   12.7577 H       1  UNL1        0.1494
      6 N          65.8373   96.8551    9.5305 N.3     1  UNL1       -0.3221
      7 C          66.3813   95.4665    9.6916 C.3     1  UNL1        0.0524
      8 C          67.4985   94.9917    8.8105 C.3     1  UNL1        0.0156
      9 C          68.0424   93.6031    8.9716 C.3     1  UNL1        0.0031
     10 C          67.4692   92.6893   10.0138 C.3     1  UNL1        0.0197
     11 C          66.3519   93.1641   10.8949 C.3     1  UNL1        0.0729
     12 C          65.8080   94.5527   10.7338 C.3     1  UNL1        0.0350
     13 H          66.3398   97.3323    8.7820 H       1  UNL1        0.1188
     14 H          65.9568   97.3703   10.4026 H       1  UNL1        0.1188
     15 N          62.4169   90.2990   12.6949 N.am    1  UNL1       -0.2978
     16 C          61.9439   89.4397   11.5600 C.2     1  UNL1        0.2257
     17 O          62.9101   88.9961   10.5019 O.2     1  UNL1       -0.2748
     18 H          61.7828   90.5902   13.3894 H       1  UNL1        0.1498
     19 C          60.5047   89.0241   11.4833 C.3     1  UNL1        0.0884
     20 C          59.0419   88.9429   11.8053 C.3     1  UNL1        0.0135
     21 C          59.9370   89.8427   12.6047 C.3     1  UNL1        0.0135
     22 C          60.5724   88.0612   10.3352 C.ar    1  UNL1       -0.0040
     23 C          60.0869   88.4767    8.9781 C.ar    1  UNL1       -0.0021
     24 C          60.1546   87.5138    7.8300 C.ar    1  UNL1        0.0111
     25 C          60.7079   86.1354    8.0389 C.ar    1  UNL1        0.0585
     26 CL         60.7757   85.1724    6.8908 Cl      1  UNL1       -0.0822
     27 C          61.1935   85.7198    9.3960 C.ar    1  UNL1        0.0225
     28 C          61.1257   86.6827   10.5441 C.ar    1  UNL1        0.0550
     29 CL         61.6113   86.2672   11.9011 Cl      1  UNL1       -0.0825
     30 C          64.7220   90.2164   13.8905 C.3     1  UNL1        0.0562
     31 C          64.1988   89.1786   14.8387 C.ar    1  UNL1       -0.0094
     32 C          64.3320   87.7223   14.5048 C.ar    1  UNL1       -0.0025
     33 C          63.8087   86.6845   15.4530 C.ar    1  UNL1        0.0111
     34 C          63.1523   87.1030   16.7352 C.ar    1  UNL1        0.0585
     35 CL         62.6290   86.0652   17.6834 Cl      1  UNL1       -0.0822
     36 C          63.0191   88.5592   17.0692 C.ar    1  UNL1        0.0225
     37 C          63.5424   89.5971   16.1209 C.ar    1  UNL1        0.0546
     38 CL         63.4092   91.0533   16.4549 Cl      1  UNL1       -0.0825
@<TRIPOS>BOND
     1     6     7    1
     2     7     8    1
     3     8     9    1
     4     9    10    1
     5    10    11    1
     6    11     2    1
     7     2     3   am
     8     3     4    2
     9     3     1    1
    10     1    30    1
    11    30    31    1
    12    31    32   ar
    13    32    33   ar
    14    33    34   ar
    15    34    35    1
    16    34    36   ar
    17    36    37   ar
    18    37    38    1
    19     1    15    1
    20    15    16   am
    21    16    17    2
    22    16    19    1
    23    19    22    1
    24    22    23   ar
    25    23    24   ar
    26    24    25   ar
    27    25    26    1
    28    25    27   ar
    29    27    28   ar
    30    28    29    1
    31    19    20    1
    32    20    21    1
    33    11    12    1
    34    12     7    1
    35    37    31   ar
    36    21    19    1
    37    28    22   ar
    38     6    13    1
    39     6    14    1
    40     2     5    1
    41    15    18    1
@<TRIPOS>MOLECULE
*****
 38 41 0 0 0
SMALL
GASTEIGER

@<TRIPOS>ATOM
      1 C          64.2283   87.3594   14.1321 C.3     1  UNL1        0.1529
      2 N          63.0513   88.4893   12.1102 N.am    1  UNL1       -0.3046
      3 C          63.2769   87.2845   12.9748 C.2     1  UNL1        0.2406
      4 O          62.5511   86.0048   12.6821 O.2     1  UNL1       -0.2733
      5 H          63.5277   89.3292   12.3023 H       1  UNL1        0.1494
      6 N          61.1667   85.9427    7.9916 N.3     1  UNL1       -0.3221
      7 C          61.1577   87.1411    8.8936 C.3     1  UNL1        0.0524
      8 C          60.1974   88.2648    8.6383 C.3     1  UNL1        0.0156
      9 C          60.1883   89.4632    9.5402 C.3     1  UNL1        0.0031
     10 C          61.1396   89.5381   10.6975 C.3     1  UNL1        0.0197
     11 C          62.1000   88.4145   10.9529 C.3     1  UNL1        0.0729
     12 C          62.1090   87.2160   10.0509 C.3     1  UNL1        0.0350
     13 H          60.4611   86.0592    7.2643 H       1  UNL1        0.1188
     14 H          60.9586   85.1057    8.5362 H       1  UNL1        0.1188
     15 N          64.8183   88.6786   14.5339 N.am    1  UNL1       -0.2978
     16 C          63.9190   89.8316   14.8685 C.2     1  UNL1        0.2257
     17 O          62.4298   89.6653   14.8015 O.2     1  UNL1       -0.2748
     18 H          65.7957   88.7878   14.5779 H       1  UNL1        0.1498
     19 C          64.5090   91.1509   15.2703 C.3     1  UNL1        0.0884
     20 C          64.8627   92.3375   16.1169 C.3     1  UNL1        0.0135
     21 C          64.0336   91.2271   16.6909 C.3     1  UNL1        0.0135
     22 C          65.1893   91.5329   13.9892 C.ar    1  UNL1       -0.0040
     23 C          64.3781   91.7612   12.7483 C.ar    1  UNL1       -0.0021
     24 C          65.0584   92.1432   11.4672 C.ar    1  UNL1        0.0111
     25 C          66.5499   92.2970   11.4270 C.ar    1  UNL1        0.0585
     26 CL         67.2302   92.6790   10.1459 Cl      1  UNL1       -0.0822
     27 C          67.3612   92.0688   12.6679 C.ar    1  UNL1        0.0225
     28 C          66.6808   91.6867   13.9490 C.ar    1  UNL1        0.0550
     29 CL         67.4921   91.4585   15.1899 Cl      1  UNL1       -0.0825
     30 C          64.5896   86.1150   14.8876 C.3     1  UNL1        0.0562
     31 C          64.0486   84.7869   14.4478 C.ar    1  UNL1       -0.0094
     32 C          64.7083   84.0430   13.3246 C.ar    1  UNL1       -0.0025
     33 C          64.1673   82.7149   12.8848 C.ar    1  UNL1        0.0111
     34 C          62.9667   82.1306   13.5681 C.ar    1  UNL1        0.0585
     35 CL         62.4257   80.8026   13.1283 Cl      1  UNL1       -0.0822
     36 C          62.3069   82.8744   14.6913 C.ar    1  UNL1        0.0225
     37 C          62.8479   84.2026   15.1312 C.ar    1  UNL1        0.0546
     38 CL         62.1882   84.9463   16.2543 Cl      1  UNL1       -0.0825
@<TRIPOS>BOND
     1     6     7    1
     2     7     8    1
     3     8     9    1
     4     9    10    1
     5    10    11    1
     6    11     2    1
     7     2     3   am
     8     3     4    2
     9     3     1    1
    10     1    30    1
    11    30    31    1
    12    31    32   ar
    13    32    33   ar
    14    33    34   ar
    15    34    35    1
    16    34    36   ar
    17    36    37   ar
    18    37    38    1
    19     1    15    1
    20    15    16   am
    21    16    17    2
    22    16    19    1
    23    19    22    1
    24    22    23   ar
    25    23    24   ar
    26    24    25   ar
    27    25    26    1
    28    25    27   ar
    29    27    28   ar
    30    28    29    1
    31    19    20    1
    32    20    21    1
    33    11    12    1
    34    12     7    1
    35    37    31   ar
    36    21    19    1
    37    28    22   ar
    38     6    13    1
    39     6    14    1
    40     2     5    1
    41    15    18    1
@<TRIPOS>MOLECULE
*****
 38 41 0 0 0
SMALL
GASTEIGER

@<TRIPOS>ATOM
      1 C          63.5835   90.8354   12.4457 C.3     1  UNL1        0.1529
      2 N          64.2844   88.9274   14.0638 N.am    1  UNL1       -0.3046
      3 C          63.2265   89.8276   13.4979 C.2     1  UNL1        0.2406
      4 O          61.8115   89.7200   13.9839 O.2     1  UNL1       -0.2733
      5 H          65.2131   88.9980   13.7448 H       1  UNL1        0.1494
      6 N          64.1713   84.0058   15.7268 N.3     1  UNL1       -0.3221
      7 C          63.8709   85.4588   15.9474 C.3     1  UNL1        0.0524
      8 C          63.2134   85.9039   17.2200 C.3     1  UNL1        0.0156
      9 C          62.9130   87.3569   17.4406 C.3     1  UNL1        0.0031
     10 C          63.2700   88.3647   16.3886 C.3     1  UNL1        0.0197
     11 C          63.9274   87.9196   15.1160 C.3     1  UNL1        0.0729
     12 C          64.2278   86.4666   14.8954 C.3     1  UNL1        0.0350
     13 H          63.8639   83.4682   16.5373 H       1  UNL1        0.1188
     14 H          65.1755   83.8821   15.5977 H       1  UNL1        0.1188
     15 N          64.8396   91.6446   12.5778 N.am    1  UNL1       -0.2978
     16 C          65.2673   92.1515   13.9233 C.2     1  UNL1        0.2257
     17 O          64.4388   91.8493   15.1366 O.2     1  UNL1       -0.2748
     18 H          65.3834   91.8429   11.7814 H       1  UNL1        0.1498
     19 C          66.5234   92.9606   14.0553 C.3     1  UNL1        0.0884
     20 C          67.7050   93.6364   14.6854 C.3     1  UNL1        0.0135
     21 C          66.7452   92.8576   15.5352 C.3     1  UNL1        0.0135
     22 C          66.7378   93.3447   12.6213 C.ar    1  UNL1       -0.0040
     23 C          66.0197   94.5297   12.0468 C.ar    1  UNL1       -0.0021
     24 C          66.2341   94.9137   10.6127 C.ar    1  UNL1        0.0111
     25 C          67.1667   94.1128    9.7532 C.ar    1  UNL1        0.0585
     26 CL         67.3811   94.4969    8.3192 Cl      1  UNL1       -0.0822
     27 C          67.8849   92.9278   10.3277 C.ar    1  UNL1        0.0225
     28 C          67.6704   92.5438   11.7618 C.ar    1  UNL1        0.0550
     29 CL         68.3886   91.3588   12.3363 Cl      1  UNL1       -0.0825
     30 C          62.6844   91.0341   11.2617 C.3     1  UNL1        0.0562
     31 C          62.0140   89.8542   10.6227 C.ar    1  UNL1       -0.0094
     32 C          62.8408   88.7563   10.0218 C.ar    1  UNL1       -0.0025
     33 C          62.1704   87.5764    9.3829 C.ar    1  UNL1        0.0111
     34 C          60.6731   87.4943    9.3449 C.ar    1  UNL1        0.0585
     35 CL         60.0026   86.3143    8.7060 Cl      1  UNL1       -0.0822
     36 C          59.8463   88.5921    9.9458 C.ar    1  UNL1        0.0225
     37 C          60.5167   89.7721   10.5847 C.ar    1  UNL1        0.0546
     38 CL         59.6899   90.8699   11.1856 Cl      1  UNL1       -0.0825
@<TRIPOS>BOND
     1     6     7    1
     2     7     8    1
     3     8     9    1
     4     9    10    1
     5    10    11    1
     6    11     2    1
     7     2     3   am
     8     3     4    2
     9     3     1    1
    10     1    30    1
    11    30    31    1
    12    31    32   ar
    13    32    33   ar
    14    33    34   ar
    15    34    35    1
    16    34    36   ar
    17    36    37   ar
    18    37    38    1
    19     1    15    1
    20    15    16   am
    21    16    17    2
    22    16    19    1
    23    19    22    1
    24    22    23   ar
    25    23    24   ar
    26    24    25   ar
    27    25    26    1
    28    25    27   ar
    29    27    28   ar
    30    28    29    1
    31    19    20    1
    32    20    21    1
    33    11    12    1
    34    12     7    1
    35    37    31   ar
    36    21    19    1
    37    28    22   ar
    38     6    13    1
    39     6    14    1
    40     2     5    1
    41    15    18    1
@<TRIPOS>MOLECULE
*****
 38 41 0 0 0
SMALL
GASTEIGER

@<TRIPOS>ATOM
      1 C          62.8271   87.4847   11.5832 C.3     1  UNL1        0.1529
      2 N          63.4815   85.0913   12.3537 N.am    1  UNL1       -0.3046
      3 C          62.4285   86.1113   12.0361 C.2     1  UNL1        0.2406
      4 O          60.9770   85.7579   12.1713 O.2     1  UNL1       -0.2733
      5 H          64.4342   85.3232   12.2649 H       1  UNL1        0.1494
      6 N          62.8662   80.0279   11.3618 N.3     1  UNL1       -0.3221
      7 C          62.7753   81.1862   12.3106 C.3     1  UNL1        0.0524
      8 C          62.2860   80.9712   13.7121 C.3     1  UNL1        0.0156
      9 C          62.1952   82.1295   14.6608 C.3     1  UNL1        0.0031
     10 C          62.5936   83.5028   14.2080 C.3     1  UNL1        0.0197
     11 C          63.0830   83.7179   12.8065 C.3     1  UNL1        0.0729
     12 C          63.1738   82.5596   11.8578 C.3     1  UNL1        0.0350
     13 H          62.5581   79.1774   11.8332 H       1  UNL1        0.1188
     14 H          63.8321   79.9153   11.0542 H       1  UNL1        0.1188
     15 N          63.6177   88.3751   12.4953 N.am    1  UNL1       -0.2978
     16 C          62.9459   89.5211   13.1923 C.2     1  UNL1        0.2257
     17 O          61.4836   89.7765   12.9770 O.2     1  UNL1       -0.2748
     18 H          64.5775   88.2075   12.6366 H       1  UNL1        0.1498
     19 C          63.7365   90.4116   14.1044 C.3     1  UNL1        0.0884
     20 C          64.2570   91.0289   15.3684 C.3     1  UNL1        0.0135
     21 C          63.2335   89.9345   15.4346 C.3     1  UNL1        0.0135
     22 C          64.5141   91.1980   13.0911 C.ar    1  UNL1       -0.0040
     23 C          63.8883   91.5504   11.7741 C.ar    1  UNL1       -0.0021
     24 C          64.6660   92.3367   10.7608 C.ar    1  UNL1        0.0111
     25 C          66.0693   92.7707   11.0643 C.ar    1  UNL1        0.0585
     26 CL         66.8469   93.5571   10.0510 Cl      1  UNL1       -0.0822
     27 C          66.6951   92.4183   12.3813 C.ar    1  UNL1        0.0225
     28 C          65.9175   91.6320   13.3946 C.ar    1  UNL1        0.0550
     29 CL         66.5433   91.2796   14.7115 Cl      1  UNL1       -0.0825
     30 C          62.4350   87.9675   10.2183 C.3     1  UNL1        0.0562
     31 C          62.1084   86.9792    9.1383 C.ar    1  UNL1       -0.0094
     32 C          63.1569   86.0207    8.6566 C.ar    1  UNL1       -0.0025
     33 C          62.8303   85.0324    7.5766 C.ar    1  UNL1        0.0111
     34 C          61.4551   85.0024    6.9783 C.ar    1  UNL1        0.0585
     35 CL         61.1285   84.0140    5.8983 Cl      1  UNL1       -0.0822
     36 C          60.4066   85.9607    7.4599 C.ar    1  UNL1        0.0225
     37 C          60.7332   86.9492    8.5400 C.ar    1  UNL1        0.0546
     38 CL         59.6846   87.9076    9.0216 Cl      1  UNL1       -0.0825
@<TRIPOS>BOND
     1     6     7    1
     2     7     8    1
     3     8     9    1
     4     9    10    1
     5    10    11    1
     6    11     2    1
     7     2     3   am
     8     3     4    2
     9     3     1    1
    10     1    30    1
    11    30    31    1
    12    31    32   ar
    13    32    33   ar
    14    33    34   ar
    15    34    35    1
    16    34    36   ar
    17    36    37   ar
    18    37    38    1
    19     1    15    1
    20    15    16   am
    21    16    17    2
    22    16    19    1
    23    19    22    1
    24    22    23   ar
    25    23    24   ar
    26    24    25   ar
    27    25    26    1
    28    25    27   ar
    29    27    28   ar
    30    28    29    1
    31    19    20    1
    32    20    21    1
    33    11    12    1
    34    12     7    1
    35    37    31   ar
    36    21    19    1
    37    28    22   ar
    38     6    13    1
    39     6    14    1
    40     2     5    1
    41    15    18    1
@<TRIPOS>MOLECULE
*****
 38 41 0 0 0
SMALL
GASTEIGER

@<TRIPOS>ATOM
      1 C          64.3278   89.7798   14.0831 C.3     1  UNL1        0.1529
      2 N          62.9202   88.4696   12.3361 N.am    1  UNL1       -0.3046
      3 C          63.3931   89.7723   12.9099 C.2     1  UNL1        0.2406
      4 O          62.9314   91.0675   12.3106 O.2     1  UNL1       -0.2733
      5 H          63.2233   87.6195   12.7294 H       1  UNL1        0.1494
      6 N          61.0088   86.1084    8.1204 N.3     1  UNL1       -0.3221
      7 C          61.0299   87.2815    9.0551 C.3     1  UNL1        0.0524
      8 C          60.1162   88.4469    8.8165 C.3     1  UNL1        0.0156
      9 C          60.1373   89.6200    9.7512 C.3     1  UNL1        0.0031
     10 C          61.0719   89.6275   10.9243 C.3     1  UNL1        0.0197
     11 C          61.9855   88.4621   11.1629 C.3     1  UNL1        0.0729
     12 C          61.9645   87.2890   10.2282 C.3     1  UNL1        0.0350
     13 H          60.3199   86.2711    7.3860 H       1  UNL1        0.1188
     14 H          60.7610   85.2654    8.6384 H       1  UNL1        0.1188
     15 N          65.6282   90.5231   14.0013 N.am    1  UNL1       -0.2978
     16 C          65.8232   91.7825   14.7923 C.2     1  UNL1        0.2257
     17 O          64.7180   92.2987   15.6652 O.2     1  UNL1       -0.2748
     18 H          66.3536   90.1843   13.4283 H       1  UNL1        0.1498
     19 C          67.1235   92.5258   14.7105 C.3     1  UNL1        0.0884
     20 C          68.4430   93.1074   15.1235 C.3     1  UNL1        0.0135
     21 C          67.6304   92.3185   16.1070 C.3     1  UNL1        0.0135
     22 C          67.0683   92.9912   13.2856 C.ar    1  UNL1       -0.0040
     23 C          66.1776   94.1365   12.9047 C.ar    1  UNL1       -0.0021
     24 C          66.1224   94.6019   11.4798 C.ar    1  UNL1        0.0111
     25 C          66.9579   93.9221   10.4359 C.ar    1  UNL1        0.0585
     26 CL         66.9026   94.3875    9.0110 Cl      1  UNL1       -0.0822
     27 C          67.8486   92.7768   10.8168 C.ar    1  UNL1        0.0225
     28 C          67.9038   92.3114   12.2417 C.ar    1  UNL1        0.0550
     29 CL         68.7945   91.1661   12.6226 Cl      1  UNL1       -0.0825
     30 C          63.9622   89.0441   15.3381 C.3     1  UNL1        0.0562
     31 C          63.9281   87.5445   15.3454 C.ar    1  UNL1       -0.0094
     32 C          64.4983   86.7757   14.1904 C.ar    1  UNL1       -0.0025
     33 C          64.4642   85.2761   14.1978 C.ar    1  UNL1        0.0111
     34 C          63.8600   84.5453   15.3600 C.ar    1  UNL1        0.0585
     35 CL         63.8259   83.0457   15.3673 Cl      1  UNL1       -0.0822
     36 C          63.2899   85.3141   16.5149 C.ar    1  UNL1        0.0225
     37 C          63.3239   86.8137   16.5077 C.ar    1  UNL1        0.0546
     38 CL         62.7538   87.5825   17.6626 Cl      1  UNL1       -0.0825
@<TRIPOS>BOND
     1     6     7    1
     2     7     8    1
     3     8     9    1
     4     9    10    1
     5    10    11    1
     6    11     2    1
     7     2     3   am
     8     3     4    2
     9     3     1    1
    10     1    30    1
    11    30    31    1
    12    31    32   ar
    13    32    33   ar
    14    33    34   ar
    15    34    35    1
    16    34    36   ar
    17    36    37   ar
    18    37    38    1
    19     1    15    1
    20    15    16   am
    21    16    17    2
    22    16    19    1
    23    19    22    1
    24    22    23   ar
    25    23    24   ar
    26    24    25   ar
    27    25    26    1
    28    25    27   ar
    29    27    28   ar
    30    28    29    1
    31    19    20    1
    32    20    21    1
    33    11    12    1
    34    12     7    1
    35    37    31   ar
    36    21    19    1
    37    28    22   ar
    38     6    13    1
    39     6    14    1
    40     2     5    1
    41    15    18    1
@<TRIPOS>MOLECULE
*****
 38 41 0 0 0
SMALL
GASTEIGER

@<TRIPOS>ATOM
      1 C          62.7805   88.4290   12.2730 C.3     1  UNL1        0.1529
      2 N          62.7708   87.0095   10.0969 N.am    1  UNL1       -0.3046
      3 C          62.0312   87.7974   11.1372 C.2     1  UNL1        0.2406
      4 O          60.5425   87.9539   11.0418 O.2     1  UNL1       -0.2733
      5 H          63.7479   86.9069   10.1595 H       1  UNL1        0.1494
      6 N          58.3792   86.4074    7.3854 N.3     1  UNL1       -0.3221
      7 C          59.8258   86.0770    7.6054 C.3     1  UNL1        0.0524
      8 C          60.5230   85.1151    6.6897 C.3     1  UNL1        0.0156
      9 C          61.9696   84.7847    6.9097 C.3     1  UNL1        0.0031
     10 C          62.7188   85.4161    8.0454 C.3     1  UNL1        0.0197
     11 C          62.0215   86.3780    8.9611 C.3     1  UNL1        0.0729
     12 C          60.5750   86.7084    8.7411 C.3     1  UNL1        0.0350
     13 H          58.0321   85.8925    6.5762 H       1  UNL1        0.1188
     14 H          58.2807   87.4089    7.2190 H       1  UNL1        0.1188
     15 N          63.6307   87.5825   13.1733 N.am    1  UNL1       -0.2978
     16 C          63.3241   86.1237   13.3408 C.2     1  UNL1        0.2257
     17 O          62.1674   85.5114   12.6079 O.2     1  UNL1       -0.2748
     18 H          64.3899   87.9843   13.6543 H       1  UNL1        0.1498
     19 C          64.1743   85.2772   14.2411 C.3     1  UNL1        0.0884
     20 C          65.2358   84.8983   15.2308 C.3     1  UNL1        0.0135
     21 C          65.0783   86.3297   14.8111 C.3     1  UNL1        0.0135
     22 C          63.5656   83.9306   13.9838 C.ar    1  UNL1       -0.0040
     23 C          62.5402   83.3781   14.9291 C.ar    1  UNL1       -0.0021
     24 C          61.9315   82.0315   14.6718 C.ar    1  UNL1        0.0111
     25 C          62.3481   81.2374   13.4694 C.ar    1  UNL1        0.0585
     26 CL         61.7394   79.8909   13.2122 Cl      1  UNL1       -0.0822
     27 C          63.3735   81.7899   12.5242 C.ar    1  UNL1        0.0225
     28 C          63.9822   83.1365   12.7815 C.ar    1  UNL1        0.0550
     29 CL         65.0076   83.6890   11.8362 Cl      1  UNL1       -0.0825
     30 C          62.6795   89.9069   12.5083 C.3     1  UNL1        0.0562
     31 C          63.8840   90.6785   12.9596 C.ar    1  UNL1       -0.0094
     32 C          64.4140   90.4955   14.3509 C.ar    1  UNL1       -0.0025
     33 C          65.6186   91.2671   14.8021 C.ar    1  UNL1        0.0111
     34 C          66.2932   92.2216   13.8621 C.ar    1  UNL1        0.0585
     35 CL         67.4978   92.9932   14.3133 Cl      1  UNL1       -0.0822
     36 C          65.7634   92.4046   12.4708 C.ar    1  UNL1        0.0225
     37 C          64.5587   91.6330   12.0195 C.ar    1  UNL1        0.0546
     38 CL         64.0288   91.8160   10.6282 Cl      1  UNL1       -0.0825
@<TRIPOS>BOND
     1     6     7    1
     2     7     8    1
     3     8     9    1
     4     9    10    1
     5    10    11    1
     6    11     2    1
     7     2     3   am
     8     3     4    2
     9     3     1    1
    10     1    30    1
    11    30    31    1
    12    31    32   ar
    13    32    33   ar
    14    33    34   ar
    15    34    35    1
    16    34    36   ar
    17    36    37   ar
    18    37    38    1
    19     1    15    1
    20    15    16   am
    21    16    17    2
    22    16    19    1
    23    19    22    1
    24    22    23   ar
    25    23    24   ar
    26    24    25   ar
    27    25    26    1
    28    25    27   ar
    29    27    28   ar
    30    28    29    1
    31    19    20    1
    32    20    21    1
    33    11    12    1
    34    12     7    1
    35    37    31   ar
    36    21    19    1
    37    28    22   ar
    38     6    13    1
    39     6    14    1
    40     2     5    1
    41    15    18    1
@<TRIPOS>MOLECULE
*****
 38 41 0 0 0
SMALL
GASTEIGER

@<TRIPOS>ATOM
      1 C          61.6365   87.0603   11.3081 C.3     1  UNL1        0.1529
      2 N          63.0520   88.5634   12.8852 N.am    1  UNL1       -0.3046
      3 C          62.5228   88.2525   11.5166 C.2     1  UNL1        0.2406
      4 O          62.8798   89.1336   10.3564 O.2     1  UNL1       -0.2733
      5 H          62.8176   87.9851   13.6467 H       1  UNL1        0.1494
      6 N          64.9200   93.1245   11.2400 N.3     1  UNL1       -0.3221
      7 C          64.8722   92.0361   12.2711 C.3     1  UNL1        0.0524
      8 C          65.7106   92.1398   13.5106 C.3     1  UNL1        0.0156
      9 C          65.6628   91.0514   14.5416 C.3     1  UNL1        0.0031
     10 C          64.7766   89.8593   14.3332 C.3     1  UNL1        0.0197
     11 C          63.9382   89.7556   13.0937 C.3     1  UNL1        0.0729
     12 C          63.9860   90.8440   12.0627 C.3     1  UNL1        0.0350
     13 H          65.5692   93.8509   11.5423 H       1  UNL1        0.1188
     14 H          63.9894   93.5262   11.1263 H       1  UNL1        0.1188
     15 N          61.6789   85.9158   12.2768 N.am    1  UNL1       -0.2978
     16 C          62.7157   84.8425   12.1247 C.2     1  UNL1        0.2257
     17 O          63.7102   84.9138   11.0040 O.2     1  UNL1       -0.2748
     18 H          61.0261   85.8690   13.0123 H       1  UNL1        0.1498
     19 C          62.7581   83.6980   13.0933 C.3     1  UNL1        0.0884
     20 C          62.7833   82.2909   13.6124 C.3     1  UNL1        0.0135
     21 C          62.7235   82.5444   12.1352 C.3     1  UNL1        0.0135
     22 C          62.8073   84.4540   14.3879 C.ar    1  UNL1       -0.0040
     23 C          61.5559   84.6456   15.1926 C.ar    1  UNL1       -0.0021
     24 C          61.6051   85.4017   16.4872 C.ar    1  UNL1        0.0111
     25 C          62.9056   85.9661   16.9771 C.ar    1  UNL1        0.0585
     26 CL         62.9548   86.7221   18.2717 Cl      1  UNL1       -0.0822
     27 C          64.1570   85.7745   16.1724 C.ar    1  UNL1        0.0225
     28 C          64.1078   85.0185   14.8778 C.ar    1  UNL1        0.0550
     29 CL         65.3591   84.8269   14.0732 Cl      1  UNL1       -0.0825
     30 C          60.7080   87.0127   10.1311 C.3     1  UNL1        0.0562
     31 C          61.1051   86.2660    8.8923 C.ar    1  UNL1       -0.0094
     32 C          62.4960   85.7202    8.7590 C.ar    1  UNL1       -0.0025
     33 C          62.8931   84.9735    7.5202 C.ar    1  UNL1        0.0111
     34 C          61.8995   84.7725    6.4147 C.ar    1  UNL1        0.0585
     35 CL         62.2966   84.0258    5.1759 Cl      1  UNL1       -0.0822
     36 C          60.5087   85.3183    6.5479 C.ar    1  UNL1        0.0225
     37 C          60.1115   86.0650    7.7867 C.ar    1  UNL1        0.0546
     38 CL         58.7207   86.6108    7.9199 Cl      1  UNL1       -0.0825
@<TRIPOS>BOND
     1     6     7    1
     2     7     8    1
     3     8     9    1
     4     9    10    1
     5    10    11    1
     6    11     2    1
     7     2     3   am
     8     3     4    2
     9     3     1    1
    10     1    30    1
    11    30    31    1
    12    31    32   ar
    13    32    33   ar
    14    33    34   ar
    15    34    35    1
    16    34    36   ar
    17    36    37   ar
    18    37    38    1
    19     1    15    1
    20    15    16   am
    21    16    17    2
    22    16    19    1
    23    19    22    1
    24    22    23   ar
    25    23    24   ar
    26    24    25   ar
    27    25    26    1
    28    25    27   ar
    29    27    28   ar
    30    28    29    1
    31    19    20    1
    32    20    21    1
    33    11    12    1
    34    12     7    1
    35    37    31   ar
    36    21    19    1
    37    28    22   ar
    38     6    13    1
    39     6    14    1
    40     2     5    1
    41    15    18    1
@<TRIPOS>MOLECULE
*****
 38 41 0 0 0
SMALL
GASTEIGER

@<TRIPOS>ATOM
      1 C          63.3009   88.4996   12.5855 C.3     1  UNL1        0.1529
      2 N          63.0699   85.9699   12.0406 N.am    1  UNL1       -0.3046
      3 C          63.4976   87.0640   12.9732 C.2     1  UNL1        0.2406
      4 O          64.1220   86.7225   14.2937 O.2     1  UNL1       -0.2733
      5 H          62.6601   86.1940   11.1739 H       1  UNL1        0.1494
      6 N          61.8212   81.9025   15.0235 N.3     1  UNL1       -0.3221
      7 C          62.6422   82.5006   13.9197 C.3     1  UNL1        0.0524
      8 C          63.6600   81.6630   13.2037 C.3     1  UNL1        0.0156
      9 C          64.4810   82.2611   12.1000 C.3     1  UNL1        0.0031
     10 C          64.2843   83.6967   11.7123 C.3     1  UNL1        0.0197
     11 C          63.2666   84.5342   12.4283 C.3     1  UNL1        0.0729
     12 C          62.4456   83.9362   13.5320 C.3     1  UNL1        0.0350
     13 H          62.0846   80.9256   15.1521 H       1  UNL1        0.1188
     14 H          60.8322   81.9589   14.7803 H       1  UNL1        0.1188
     15 N          62.6660   88.8410   11.2701 N.am    1  UNL1       -0.2978
     16 C          61.3214   88.2771   10.9174 C.2     1  UNL1        0.2257
     17 O          60.6118   87.3719   11.8802 O.2     1  UNL1       -0.2748
     18 H          63.1317   89.4351   10.6382 H       1  UNL1        0.1498
     19 C          60.6866   88.6185    9.6020 C.3     1  UNL1        0.0884
     20 C          59.9120   89.3771    8.5654 C.3     1  UNL1        0.0135
     21 C          60.0639   89.9385    9.9480 C.3     1  UNL1        0.0135
     22 C          61.0887   87.4170    8.7991 C.ar    1  UNL1       -0.0040
     23 C          62.4950   86.9005    8.8753 C.ar    1  UNL1       -0.0021
     24 C          62.8971   85.6990    8.0724 C.ar    1  UNL1        0.0111
     25 C          61.8932   85.0141    7.1932 C.ar    1  UNL1        0.0585
     26 CL         62.2954   83.8127    6.3903 Cl      1  UNL1       -0.0822
     27 C          60.4870   85.5307    7.1170 C.ar    1  UNL1        0.0225
     28 C          60.0848   86.7321    7.9199 C.ar    1  UNL1        0.0550
     29 CL         58.6786   87.2487    7.8437 Cl      1  UNL1       -0.0825
     30 C          63.7390   89.5938   13.5132 C.3     1  UNL1        0.0562
     31 C          64.4002   90.8230   12.9638 C.ar    1  UNL1       -0.0094
     32 C          64.1126   91.2653   11.5596 C.ar    1  UNL1       -0.0025
     33 C          64.7738   92.4944   11.0101 C.ar    1  UNL1        0.0111
     34 C          65.7226   93.2814   11.8648 C.ar    1  UNL1        0.0585
     35 CL         66.3838   94.5105   11.3153 Cl      1  UNL1       -0.0822
     36 C          66.0102   92.8392   13.2689 C.ar    1  UNL1        0.0225
     37 C          65.3490   91.6099   13.8185 C.ar    1  UNL1        0.0546
     38 CL         65.6366   91.1677   15.2226 Cl      1  UNL1       -0.0825
@<TRIPOS>BOND
     1     6     7    1
     2     7     8    1
     3     8     9    1
     4     9    10    1
     5    10    11    1
     6    11     2    1
     7     2     3   am
     8     3     4    2
     9     3     1    1
    10     1    30    1
    11    30    31    1
    12    31    32   ar
    13    32    33   ar
    14    33    34   ar
    15    34    35    1
    16    34    36   ar
    17    36    37   ar
    18    37    38    1
    19     1    15    1
    20    15    16   am
    21    16    17    2
    22    16    19    1
    23    19    22    1
    24    22    23   ar
    25    23    24   ar
    26    24    25   ar
    27    25    26    1
    28    25    27   ar
    29    27    28   ar
    30    28    29    1
    31    19    20    1
    32    20    21    1
    33    11    12    1
    34    12     7    1
    35    37    31   ar
    36    21    19    1
    37    28    22   ar
    38     6    13    1
    39     6    14    1
    40     2     5    1
    41    15    18    1
