@<TRIPOS>MOLECULE
*****
 30 32 0 0 0
SMALL
GASTEIGER

@<TRIPOS>ATOM
      1 C          65.7266   91.3884   13.9825 C.ar    1  UNL1        0.1980
      2 C          64.7037   91.2422   12.8950 C.ar    1  UNL1        0.0494
      3 C          63.8835   90.0218   13.1913 C.ar    1  UNL1        0.0871
      4 C          64.3992   89.4138   14.4619 C.ar    1  UNL1        0.1310
      5 O          65.5383   90.2584   14.9509 O.2     1  UNL1       -0.4527
      6 C          68.3789   93.9096   15.5182 C.3     1  UNL1        0.1110
      7 N          67.3488   92.8240   15.4169 N.am    1  UNL1       -0.2967
      8 C          66.7567   92.4740   14.0839 C.2     1  UNL1        0.2806
      9 O          67.1946   93.2097   12.8522 O.2     1  UNL1       -0.2668
     10 H          67.0613   92.3412   16.2253 H       1  UNL1        0.1499
     11 C          62.7469   89.5009   12.3625 C.2     1  UNL1        0.2486
     12 O          61.3409   89.5890   12.8777 O.2     1  UNL1       -0.2700
     13 N          63.0163   88.8919   11.0184 N.am    1  UNL1       -0.3024
     14 H          63.9391   88.8341   10.6802 H       1  UNL1        0.1497
     15 C          61.8797   88.3710   10.1895 C.3     1  UNL1        0.0720
     16 C          61.6587   86.8927   10.0644 C.3     1  UNL1        0.0221
     17 C          60.5222   86.3719    9.2356 C.3     1  UNL1        0.0309
     18 C          59.6067   87.3294    8.5319 C.3     1  UNL1        0.1106
     19 O          58.4701   86.8085    7.7031 O.3     1  UNL1       -0.3845
     20 C          59.8277   88.8077    8.6571 C.3     1  UNL1        0.0309
     21 C          60.9642   89.3285    9.4859 C.3     1  UNL1        0.0221
     22 H          58.4696   85.8388    7.7280 H       1  UNL1        0.2103
     23 C          63.8689   88.1782   15.1266 C.3     1  UNL1        0.0798
     24 C          63.1082   88.2872   16.4148 C.3     1  UNL1        0.0127
     25 C          64.0994   86.8334   14.5032 C.ar    1  UNL1       -0.0153
     26 C          65.1791   85.9366   15.0324 C.ar    1  UNL1       -0.0039
     27 C          65.4096   84.5919   14.4090 C.ar    1  UNL1       -0.0003
     28 C          64.5604   84.1439   13.2566 C.ar    1  UNL1       -0.0000
     29 C          63.4807   85.0407   12.7274 C.ar    1  UNL1       -0.0003
     30 C          63.2502   86.3855   13.3508 C.ar    1  UNL1       -0.0039
@<TRIPOS>BOND
     1     6     7    1
     2     7     8   am
     3     8     9    2
     4     8     1    1
     5     1     2   ar
     6     2     3   ar
     7     3    11    1
     8    11    12    2
     9    11    13   am
    10    15    13    1
    11    15    16    1
    12    16    17    1
    13    17    18    1
    14    18    19    1
    15    18    20    1
    16    20    21    1
    17     3     4   ar
    18     4    23    1
    19    23    24    1
    20    23    25    1
    21    25    26   ar
    22    26    27   ar
    23    27    28   ar
    24    28    29   ar
    25    29    30   ar
    26     4     5   ar
    27     5     1   ar
    28    21    15    1
    29    30    25   ar
    30     7    10    1
    31    13    14    1
    32    19    22    1
@<TRIPOS>MOLECULE
*****
 30 32 0 0 0
SMALL
GASTEIGER

@<TRIPOS>ATOM
      1 C          63.6808   90.4469   12.2087 C.ar    1  UNL1        0.1980
      2 C          63.6038   89.0654   12.7883 C.ar    1  UNL1        0.0494
      3 C          62.6848   88.2517   11.9262 C.ar    1  UNL1        0.0871
      4 C          62.1938   89.1300   10.8138 C.ar    1  UNL1        0.1310
      5 O          62.8094   90.4867   10.9883 O.2     1  UNL1       -0.4527
      6 C          66.0624   93.6176   12.3655 C.3     1  UNL1        0.1110
      7 N          65.2557   92.4764   11.8205 N.am    1  UNL1       -0.2967
      8 C          64.4875   91.5880   12.7536 C.2     1  UNL1        0.2806
      9 O          64.5261   91.8406   14.2317 O.2     1  UNL1       -0.2668
     10 H          65.2303   92.3106   10.8504 H       1  UNL1        0.1499
     11 C          62.3207   86.8121   12.1392 C.2     1  UNL1        0.2486
     12 O          60.9352   86.3339   11.8203 O.2     1  UNL1       -0.2700
     13 N          63.3421   85.8510   12.6710 N.am    1  UNL1       -0.3024
     14 H          64.2515   86.1649   12.8803 H       1  UNL1        0.1497
     15 C          62.9780   84.4114   12.8840 C.3     1  UNL1        0.0720
     16 C          62.5842   83.9316   14.2495 C.3     1  UNL1        0.0221
     17 C          62.2201   82.4921   14.4624 C.3     1  UNL1        0.0309
     18 C          62.2499   81.5325   13.3099 C.3     1  UNL1        0.1106
     19 O          61.8859   80.0930   13.5229 O.3     1  UNL1       -0.3845
     20 C          62.6438   82.0124   11.9444 C.3     1  UNL1        0.0309
     21 C          63.0079   83.4519   11.7315 C.3     1  UNL1        0.0221
     22 H          61.6582   79.9516   14.4551 H       1  UNL1        0.2103
     23 C          61.2526   88.7230    9.7191 C.3     1  UNL1        0.0798
     24 C          60.0743   89.5882    9.3829 C.3     1  UNL1        0.0127
     25 C          61.4897   87.4508    8.9605 C.ar    1  UNL1       -0.0153
     26 C          62.8285   86.7775    9.0253 C.ar    1  UNL1       -0.0039
     27 C          63.0656   85.5053    8.2668 C.ar    1  UNL1       -0.0003
     28 C          61.9640   84.9065    7.4435 C.ar    1  UNL1       -0.0000
     29 C          60.6252   85.5799    7.3787 C.ar    1  UNL1       -0.0003
     30 C          60.3880   86.8520    8.1373 C.ar    1  UNL1       -0.0039
@<TRIPOS>BOND
     1     6     7    1
     2     7     8   am
     3     8     9    2
     4     8     1    1
     5     1     2   ar
     6     2     3   ar
     7     3    11    1
     8    11    12    2
     9    11    13   am
    10    15    13    1
    11    15    16    1
    12    16    17    1
    13    17    18    1
    14    18    19    1
    15    18    20    1
    16    20    21    1
    17     3     4   ar
    18     4    23    1
    19    23    24    1
    20    23    25    1
    21    25    26   ar
    22    26    27   ar
    23    27    28   ar
    24    28    29   ar
    25    29    30   ar
    26     4     5   ar
    27     5     1   ar
    28    21    15    1
    29    30    25   ar
    30     7    10    1
    31    13    14    1
    32    19    22    1
@<TRIPOS>MOLECULE
*****
 30 32 0 0 0
SMALL
GASTEIGER

@<TRIPOS>ATOM
      1 C          63.8223   88.6489   14.3350 C.ar    1  UNL1        0.1980
      2 C          64.6936   89.8644   14.2181 C.ar    1  UNL1        0.0494
      3 C          64.3937   90.5250   12.9052 C.ar    1  UNL1        0.0871
      4 C          63.3371   89.7180   12.2108 C.ar    1  UNL1        0.1310
      5 O          62.9840   88.5584   13.0944 O.2     1  UNL1       -0.4527
      6 C          62.9034   87.0238   17.8371 C.3     1  UNL1        0.1110
      7 N          62.9314   87.9807   16.6823 N.am    1  UNL1       -0.2967
      8 C          63.7943   87.6920   15.4898 C.2     1  UNL1        0.2806
      9 O          64.6291   86.4463   15.4520 O.2     1  UNL1       -0.2668
     10 H          62.3835   88.7982   16.7071 H       1  UNL1        0.1499
     11 C          65.0374   91.7737   12.3792 C.2     1  UNL1        0.2486
     12 O          65.2725   92.9389   13.2941 O.2     1  UNL1       -0.2700
     13 N          65.4459   91.8571   10.9384 N.am    1  UNL1       -0.3024
     14 H          65.2916   91.0923   10.3379 H       1  UNL1        0.1497
     15 C          66.0897   93.1057   10.4124 C.3     1  UNL1        0.0720
     16 C          65.3871   94.4244   10.5440 C.3     1  UNL1        0.0221
     17 C          66.0308   95.6729   10.0180 C.3     1  UNL1        0.0309
     18 C          67.3771   95.6028    9.3604 C.3     1  UNL1        0.1106
     19 O          68.0209   96.8514    8.8343 O.3     1  UNL1       -0.3845
     20 C          68.0797   94.2841    9.2288 C.3     1  UNL1        0.0309
     21 C          67.4360   93.0356    9.7548 C.3     1  UNL1        0.0221
     22 H          67.4384   97.6094    8.9988 H       1  UNL1        0.2103
     23 C          62.7388   90.0178   10.8684 C.3     1  UNL1        0.0798
     24 C          62.8992   91.3809   10.2632 C.3     1  UNL1        0.0127
     25 C          61.9801   88.9544   10.1310 C.ar    1  UNL1       -0.0153
     26 C          62.4465   87.5297   10.1801 C.ar    1  UNL1       -0.0039
     27 C          61.6879   86.4663    9.4427 C.ar    1  UNL1       -0.0003
     28 C          60.4628   86.8277    8.6563 C.ar    1  UNL1       -0.0000
     29 C          59.9963   88.2524    8.6072 C.ar    1  UNL1       -0.0003
     30 C          60.7550   89.3158    9.3446 C.ar    1  UNL1       -0.0039
@<TRIPOS>BOND
     1     6     7    1
     2     7     8   am
     3     8     9    2
     4     8     1    1
     5     1     2   ar
     6     2     3   ar
     7     3    11    1
     8    11    12    2
     9    11    13   am
    10    15    13    1
    11    15    16    1
    12    16    17    1
    13    17    18    1
    14    18    19    1
    15    18    20    1
    16    20    21    1
    17     3     4   ar
    18     4    23    1
    19    23    24    1
    20    23    25    1
    21    25    26   ar
    22    26    27   ar
    23    27    28   ar
    24    28    29   ar
    25    29    30   ar
    26     4     5   ar
    27     5     1   ar
    28    21    15    1
    29    30    25   ar
    30     7    10    1
    31    13    14    1
    32    19    22    1
@<TRIPOS>MOLECULE
*****
 30 32 0 0 0
SMALL
GASTEIGER

@<TRIPOS>ATOM
      1 C          61.9209   85.9640    9.2847 C.ar    1  UNL1        0.1980
      2 C          61.9614   87.3238    9.9168 C.ar    1  UNL1        0.0494
      3 C          62.4296   87.1629   11.3327 C.ar    1  UNL1        0.0871
      4 C          62.6786   85.7038   11.5758 C.ar    1  UNL1        0.1310
      5 O          62.3642   84.9628   10.3101 O.2     1  UNL1       -0.4527
      6 C          61.9662   84.4879    5.6011 C.3     1  UNL1        0.1110
      7 N          62.3776   84.7929    7.0109 N.am    1  UNL1       -0.2967
      8 C          61.5095   85.6589    7.8749 C.2     1  UNL1        0.2806
      9 O          60.2299   86.2199    7.3290 O.2     1  UNL1       -0.2668
     10 H          63.2174   84.4247    7.3692 H       1  UNL1        0.1499
     11 C          62.6162   88.2674   12.3305 C.2     1  UNL1        0.2486
     12 O          61.5320   89.2835   12.5359 O.2     1  UNL1       -0.2700
     13 N          63.8868   88.3557   13.1227 N.am    1  UNL1       -0.3024
     14 H          64.5983   87.6888   12.9879 H       1  UNL1        0.1497
     15 C          64.0733   89.4602   14.1204 C.3     1  UNL1        0.0720
     16 C          63.3831   89.3938   15.4505 C.3     1  UNL1        0.0221
     17 C          63.5697   90.4983   16.4482 C.3     1  UNL1        0.0309
     18 C          64.4464   91.6691   16.1157 C.3     1  UNL1        0.1106
     19 O          64.6329   92.7736   17.1135 O.3     1  UNL1       -0.3845
     20 C          65.1366   91.7355   14.7856 C.3     1  UNL1        0.0309
     21 C          64.9500   90.6310   13.7880 C.3     1  UNL1        0.0221
     22 H          64.1216   92.5762   17.9138 H       1  UNL1        0.2103
     23 C          63.1578   85.0931   12.8592 C.3     1  UNL1        0.0798
     24 C          63.8767   85.9375   13.8693 C.3     1  UNL1        0.0127
     25 C          62.9181   83.6378   13.1327 C.ar    1  UNL1       -0.0153
     26 C          62.0634   83.2237   14.2937 C.ar    1  UNL1       -0.0039
     27 C          61.8237   81.7685   14.5673 C.ar    1  UNL1       -0.0003
     28 C          62.4387   80.7273   13.6798 C.ar    1  UNL1       -0.0000
     29 C          63.2935   81.1413   12.5188 C.ar    1  UNL1       -0.0003
     30 C          63.5332   82.5966   12.2452 C.ar    1  UNL1       -0.0039
@<TRIPOS>BOND
     1     6     7    1
     2     7     8   am
     3     8     9    2
     4     8     1    1
     5     1     2   ar
     6     2     3   ar
     7     3    11    1
     8    11    12    2
     9    11    13   am
    10    15    13    1
    11    15    16    1
    12    16    17    1
    13    17    18    1
    14    18    19    1
    15    18    20    1
    16    20    21    1
    17     3     4   ar
    18     4    23    1
    19    23    24    1
    20    23    25    1
    21    25    26   ar
    22    26    27   ar
    23    27    28   ar
    24    28    29   ar
    25    29    30   ar
    26     4     5   ar
    27     5     1   ar
    28    21    15    1
    29    30    25   ar
    30     7    10    1
    31    13    14    1
    32    19    22    1
@<TRIPOS>MOLECULE
*****
 30 32 0 0 0
SMALL
GASTEIGER

@<TRIPOS>ATOM
      1 C          61.6138   88.6548   10.8291 C.ar    1  UNL1        0.1980
      2 C          62.2377   89.9061   11.3724 C.ar    1  UNL1        0.0494
      3 C          63.1293   89.5208   12.5155 C.ar    1  UNL1        0.0871
      4 C          63.0564   88.0315   12.6787 C.ar    1  UNL1        0.1310
      5 O          62.1197   87.4963   11.6364 O.2     1  UNL1       -0.4527
      6 C          59.3430   87.1657    7.9350 C.3     1  UNL1        0.1110
      7 N          60.3041   87.2445    9.0839 N.am    1  UNL1       -0.2967
      8 C          60.6526   88.5760    9.6802 C.2     1  UNL1        0.2806
      9 O          60.0400   89.8288    9.1276 O.2     1  UNL1       -0.2668
     10 H          60.7062   86.4223    9.4466 H       1  UNL1        0.1499
     11 C          63.9498   90.4600   13.3491 C.2     1  UNL1        0.2486
     12 O          63.3681   91.0606   14.5944 O.2     1  UNL1       -0.2700
     13 N          65.3518   90.7985   12.9373 N.am    1  UNL1       -0.3024
     14 H          65.7336   90.4042   12.1200 H       1  UNL1        0.1497
     15 C          66.1723   91.7377   13.7709 C.3     1  UNL1        0.0720
     16 C          66.1600   93.2083   13.4757 C.3     1  UNL1        0.0221
     17 C          66.9804   94.1474   14.3093 C.3     1  UNL1        0.0309
     18 C          67.8132   93.6159   15.4381 C.3     1  UNL1        0.1106
     19 O          68.6336   94.5551   16.2717 O.3     1  UNL1       -0.3845
     20 C          67.8254   92.1453   15.7333 C.3     1  UNL1        0.0309
     21 C          67.0050   91.2062   14.8997 C.3     1  UNL1        0.0221
     22 H          68.5130   95.4623   15.9501 H       1  UNL1        0.2103
     23 C          63.7911   87.2199   13.7041 C.3     1  UNL1        0.0798
     24 C          64.5778   87.9064   14.7810 C.3     1  UNL1        0.0127
     25 C          63.7392   85.7216   13.6526 C.ar    1  UNL1       -0.0153
     26 C          64.2688   84.9131   14.7996 C.ar    1  UNL1       -0.0039
     27 C          64.2169   83.4148   14.7482 C.ar    1  UNL1       -0.0003
     28 C          63.6355   82.7252   13.5498 C.ar    1  UNL1       -0.0000
     29 C          63.1059   83.5338   12.4027 C.ar    1  UNL1       -0.0003
     30 C          63.1578   85.0320   12.4541 C.ar    1  UNL1       -0.0039
@<TRIPOS>BOND
     1     6     7    1
     2     7     8   am
     3     8     9    2
     4     8     1    1
     5     1     2   ar
     6     2     3   ar
     7     3    11    1
     8    11    12    2
     9    11    13   am
    10    15    13    1
    11    15    16    1
    12    16    17    1
    13    17    18    1
    14    18    19    1
    15    18    20    1
    16    20    21    1
    17     3     4   ar
    18     4    23    1
    19    23    24    1
    20    23    25    1
    21    25    26   ar
    22    26    27   ar
    23    27    28   ar
    24    28    29   ar
    25    29    30   ar
    26     4     5   ar
    27     5     1   ar
    28    21    15    1
    29    30    25   ar
    30     7    10    1
    31    13    14    1
    32    19    22    1
@<TRIPOS>MOLECULE
*****
 30 32 0 0 0
SMALL
GASTEIGER

@<TRIPOS>ATOM
      1 C          61.0826   87.4268    9.6317 C.ar    1  UNL1        0.1980
      2 C          61.7235   88.5347   10.4141 C.ar    1  UNL1        0.0494
      3 C          62.5208   87.9169   11.5243 C.ar    1  UNL1        0.0871
      4 C          62.3727   86.4274   11.4282 C.ar    1  UNL1        0.1310
      5 O          61.4839   86.1244   10.2586 O.2     1  UNL1       -0.4527
      6 C          59.0475   89.1261    6.6786 C.3     1  UNL1        0.1110
      7 N          59.9339   88.9606    7.8773 N.am    1  UNL1       -0.2967
      8 C          60.1961   87.5923    8.4331 C.2     1  UNL1        0.2806
      9 O          59.5719   86.3894    7.7902 O.2     1  UNL1       -0.2668
     10 H          60.3437   89.7501    8.2992 H       1  UNL1        0.1499
     11 C          63.3251   88.6587   12.5506 C.2     1  UNL1        0.2486
     12 O          64.0306   87.9049   13.6387 O.2     1  UNL1       -0.2700
     13 N          63.4237   90.1541   12.4887 N.am    1  UNL1       -0.3024
     14 H          62.9606   90.6488   11.7745 H       1  UNL1        0.1497
     15 C          64.2279   90.8958   13.5149 C.3     1  UNL1        0.0720
     16 C          63.8526   90.8135   14.9648 C.3     1  UNL1        0.0221
     17 C          64.6568   91.5552   15.9910 C.3     1  UNL1        0.0309
     18 C          65.8364   92.3793   15.5672 C.3     1  UNL1        0.1106
     19 O          66.6406   93.1210   16.5935 O.3     1  UNL1       -0.3845
     20 C          66.2117   92.4616   14.1173 C.3     1  UNL1        0.0309
     21 C          65.4075   91.7198   13.0912 C.3     1  UNL1        0.0221
     22 H          66.2666   92.9618   17.4742 H       1  UNL1        0.2103
     23 C          63.0028   85.4180   12.3415 C.3     1  UNL1        0.0798
     24 C          63.5169   85.8406   13.6858 C.3     1  UNL1        0.0127
     25 C          63.1190   83.9859   11.9105 C.ar    1  UNL1       -0.0153
     26 C          63.8217   83.6426   10.6305 C.ar    1  UNL1       -0.0039
     27 C          63.9379   82.2106   10.1995 C.ar    1  UNL1       -0.0003
     28 C          63.3513   81.1219   11.0483 C.ar    1  UNL1       -0.0000
     29 C          62.6486   81.4652   12.3283 C.ar    1  UNL1       -0.0003
     30 C          62.5324   82.8972   12.7593 C.ar    1  UNL1       -0.0039
@<TRIPOS>BOND
     1     6     7    1
     2     7     8   am
     3     8     9    2
     4     8     1    1
     5     1     2   ar
     6     2     3   ar
     7     3    11    1
     8    11    12    2
     9    11    13   am
    10    15    13    1
    11    15    16    1
    12    16    17    1
    13    17    18    1
    14    18    19    1
    15    18    20    1
    16    20    21    1
    17     3     4   ar
    18     4    23    1
    19    23    24    1
    20    23    25    1
    21    25    26   ar
    22    26    27   ar
    23    27    28   ar
    24    28    29   ar
    25    29    30   ar
    26     4     5   ar
    27     5     1   ar
    28    21    15    1
    29    30    25   ar
    30     7    10    1
    31    13    14    1
    32    19    22    1
@<TRIPOS>MOLECULE
*****
 30 32 0 0 0
SMALL
GASTEIGER

@<TRIPOS>ATOM
      1 C          59.3834   89.8942    7.0936 C.ar    1  UNL1        0.1980
      2 C          59.8386   88.4652    7.1234 C.ar    1  UNL1        0.0494
      3 C          60.3271   88.1631    8.5091 C.ar    1  UNL1        0.0871
      4 C          60.1739   89.4053    9.3357 C.ar    1  UNL1        0.1310
      5 O          59.5907   90.4752    8.4610 O.2     1  UNL1       -0.4527
      6 C          59.1421   92.2148    3.8832 C.3     1  UNL1        0.1110
      7 N          59.7056   91.4935    5.0716 N.am    1  UNL1       -0.2967
      8 C          58.8200   90.6155    5.9053 C.2     1  UNL1        0.2806
      9 O          57.3710   90.4589    5.5506 O.2     1  UNL1       -0.2668
     10 H          60.6566   91.5963    5.3044 H       1  UNL1        0.1499
     11 C          60.8730   86.8493    8.9846 C.2     1  UNL1        0.2486
     12 O          60.3194   85.5659    8.4402 O.2     1  UNL1       -0.2700
     13 N          61.9726   86.8190   10.0044 N.am    1  UNL1       -0.3024
     14 H          62.3360   87.6614   10.3616 H       1  UNL1        0.1497
     15 C          62.5185   85.5052   10.4799 C.3     1  UNL1        0.0720
     16 C          63.3040   84.6362    9.5430 C.3     1  UNL1        0.0221
     17 C          63.8499   83.3225   10.0185 C.3     1  UNL1        0.0309
     18 C          63.6103   82.8778   11.4309 C.3     1  UNL1        0.1106
     19 O          64.1562   81.5641   11.9064 O.3     1  UNL1       -0.3845
     20 C          62.8248   83.7468   12.3678 C.3     1  UNL1        0.0309
     21 C          62.2789   85.0605   11.8923 C.3     1  UNL1        0.0221
     22 H          64.6347   81.1315   11.1820 H       1  UNL1        0.2103
     23 C          60.5396   89.5519   10.7830 C.3     1  UNL1        0.0798
     24 C          59.6074   89.0522   11.8466 C.3     1  UNL1        0.0127
     25 C          61.8377   90.1982   11.1668 C.ar    1  UNL1       -0.0153
     26 C          62.6121   90.9861   10.1521 C.ar    1  UNL1       -0.0039
     27 C          63.9102   91.6324   10.5359 C.ar    1  UNL1       -0.0003
     28 C          64.4339   91.4908   11.9343 C.ar    1  UNL1       -0.0000
     29 C          63.6596   90.7029   12.9490 C.ar    1  UNL1       -0.0003
     30 C          62.3615   90.0566   12.5652 C.ar    1  UNL1       -0.0039
@<TRIPOS>BOND
     1     6     7    1
     2     7     8   am
     3     8     9    2
     4     8     1    1
     5     1     2   ar
     6     2     3   ar
     7     3    11    1
     8    11    12    2
     9    11    13   am
    10    15    13    1
    11    15    16    1
    12    16    17    1
    13    17    18    1
    14    18    19    1
    15    18    20    1
    16    20    21    1
    17     3     4   ar
    18     4    23    1
    19    23    24    1
    20    23    25    1
    21    25    26   ar
    22    26    27   ar
    23    27    28   ar
    24    28    29   ar
    25    29    30   ar
    26     4     5   ar
    27     5     1   ar
    28    21    15    1
    29    30    25   ar
    30     7    10    1
    31    13    14    1
    32    19    22    1
@<TRIPOS>MOLECULE
*****
 30 32 0 0 0
SMALL
GASTEIGER

@<TRIPOS>ATOM
      1 C          60.2896   88.8901    8.7408 C.ar    1  UNL1        0.1980
      2 C          60.7987   87.5565    9.2019 C.ar    1  UNL1        0.0494
      3 C          61.5250   87.7607   10.4983 C.ar    1  UNL1        0.0871
      4 C          61.4649   89.2204   10.8385 C.ar    1  UNL1        0.1310
      5 O          60.7014   89.9184    9.7523 O.2     1  UNL1       -0.4527
      6 C          59.0585   90.5895    5.3723 C.3     1  UNL1        0.1110
      7 N          59.8417   90.3299    6.6250 N.am    1  UNL1       -0.2967
      8 C          59.5064   89.1498    7.4881 C.2     1  UNL1        0.2806
      9 O          58.3878   88.2294    7.0987 O.2     1  UNL1       -0.2668
     10 H          60.5759   90.9339    6.8806 H       1  UNL1        0.1499
     11 C          62.1940   86.6926   11.3118 C.2     1  UNL1        0.2486
     12 O          63.2199   87.0655   12.3406 O.2     1  UNL1       -0.2700
     13 N          61.8370   85.2518   11.0965 N.am    1  UNL1       -0.3024
     14 H          61.1636   85.0071   10.4213 H       1  UNL1        0.1497
     15 C          62.5060   84.1836   11.9100 C.3     1  UNL1        0.0720
     16 C          63.3394   83.1365   11.2326 C.3     1  UNL1        0.0221
     17 C          64.0083   82.0684   12.0461 C.3     1  UNL1        0.0309
     18 C          63.8438   82.0476   13.5369 C.3     1  UNL1        0.1106
     19 O          64.5128   80.9794   14.3504 O.3     1  UNL1       -0.3845
     20 C          63.0104   83.0947   14.2142 C.3     1  UNL1        0.0309
     21 C          62.3415   84.1628   13.4008 C.3     1  UNL1        0.0221
     22 H          65.0083   80.3880   13.7625 H       1  UNL1        0.2103
     23 C          62.0633   89.8682   12.0518 C.3     1  UNL1        0.0798
     24 C          61.4599   89.6293   13.4042 C.3     1  UNL1        0.0127
     25 C          63.2651   90.7551   11.9129 C.ar    1  UNL1       -0.0153
     26 C          63.5852   91.3822   10.5884 C.ar    1  UNL1       -0.0039
     27 C          64.7869   92.2690   10.4493 C.ar    1  UNL1       -0.0003
     28 C          65.6686   92.5287   11.6347 C.ar    1  UNL1       -0.0000
     29 C          65.3484   91.9016   12.9592 C.ar    1  UNL1       -0.0003
     30 C          64.1467   91.0148   13.0983 C.ar    1  UNL1       -0.0039
@<TRIPOS>BOND
     1     6     7    1
     2     7     8   am
     3     8     9    2
     4     8     1    1
     5     1     2   ar
     6     2     3   ar
     7     3    11    1
     8    11    12    2
     9    11    13   am
    10    15    13    1
    11    15    16    1
    12    16    17    1
    13    17    18    1
    14    18    19    1
    15    18    20    1
    16    20    21    1
    17     3     4   ar
    18     4    23    1
    19    23    24    1
    20    23    25    1
    21    25    26   ar
    22    26    27   ar
    23    27    28   ar
    24    28    29   ar
    25    29    30   ar
    26     4     5   ar
    27     5     1   ar
    28    21    15    1
    29    30    25   ar
    30     7    10    1
    31    13    14    1
    32    19    22    1
@<TRIPOS>MOLECULE
*****
 30 32 0 0 0
SMALL
GASTEIGER

@<TRIPOS>ATOM
      1 C          62.9401   83.3775   13.0649 C.ar    1  UNL1        0.1980
      2 C          63.5042   84.5785   13.7646 C.ar    1  UNL1        0.0494
      3 C          63.0860   85.7993   13.0000 C.ar    1  UNL1        0.0871
      4 C          62.2634   85.3530   11.8278 C.ar    1  UNL1        0.1310
      5 O          62.1732   83.8562   11.8679 O.2     1  UNL1       -0.4527
      6 C          62.4768   79.4406   13.2540 C.3     1  UNL1        0.1110
      7 N          62.3043   80.8693   12.8310 N.am    1  UNL1       -0.2967
      8 C          63.1125   81.9488   13.4879 C.2     1  UNL1        0.2806
      9 O          64.0932   81.5995   14.5679 O.2     1  UNL1       -0.2668
     10 H          61.6607   81.0985   12.1221 H       1  UNL1        0.1499
     11 C          63.4300   87.2176   13.3468 C.2     1  UNL1        0.2486
     12 O          63.4012   88.2773   12.2856 O.2     1  UNL1       -0.2700
     13 N          63.8028   87.5761   14.7548 N.am    1  UNL1       -0.3024
     14 H          63.8217   86.8806   15.4513 H       1  UNL1        0.1497
     15 C          64.1468   88.9944   15.1016 C.3     1  UNL1        0.0720
     16 C          65.2080   89.7194   14.3282 C.3     1  UNL1        0.0221
     17 C          65.5520   91.1376   14.6750 C.3     1  UNL1        0.0309
     18 C          64.8348   91.8308   15.7953 C.3     1  UNL1        0.1106
     19 O          65.1788   93.2491   16.1421 O.3     1  UNL1       -0.3845
     20 C          63.7736   91.1058   16.5688 C.3     1  UNL1        0.0309
     21 C          63.4297   89.6876   16.2220 C.3     1  UNL1        0.0221
     22 H          65.8789   93.5659   15.5503 H       1  UNL1        0.2103
     23 C          61.6404   86.2465   10.7966 C.3     1  UNL1        0.0798
     24 C          61.0056   87.5410   11.2108 C.3     1  UNL1        0.0127
     25 C          61.6521   85.8457    9.3512 C.ar    1  UNL1       -0.0153
     26 C          62.8809   85.2257    8.7549 C.ar    1  UNL1       -0.0039
     27 C          62.8927   84.8248    7.3095 C.ar    1  UNL1       -0.0003
     28 C          61.6757   85.0439    6.4604 C.ar    1  UNL1       -0.0000
     29 C          60.4469   85.6639    7.0568 C.ar    1  UNL1       -0.0003
     30 C          60.4351   86.0648    8.5022 C.ar    1  UNL1       -0.0039
@<TRIPOS>BOND
     1     6     7    1
     2     7     8   am
     3     8     9    2
     4     8     1    1
     5     1     2   ar
     6     2     3   ar
     7     3    11    1
     8    11    12    2
     9    11    13   am
    10    15    13    1
    11    15    16    1
    12    16    17    1
    13    17    18    1
    14    18    19    1
    15    18    20    1
    16    20    21    1
    17     3     4   ar
    18     4    23    1
    19    23    24    1
    20    23    25    1
    21    25    26   ar
    22    26    27   ar
    23    27    28   ar
    24    28    29   ar
    25    29    30   ar
    26     4     5   ar
    27     5     1   ar
    28    21    15    1
    29    30    25   ar
    30     7    10    1
    31    13    14    1
    32    19    22    1
