@<TRIPOS>MOLECULE
*****
 34 38 0 0 0
SMALL
GASTEIGER

@<TRIPOS>ATOM
      1 C          62.9007   86.0988   12.4187 C.2     1  UNL1        0.2507
      2 O          63.3463   87.0036   13.5290 O.2     1  UNL1       -0.2698
      3 N          62.2098   86.6709   11.2165 N.am    1  UNL1       -0.2723
      4 C          61.7642   85.7661   10.1062 C.3     1  UNL1        0.1257
      5 C          61.0733   86.3383    8.9040 C.3     1  UNL1        0.1637
      6 O          60.8279   87.8152    8.8121 O.3     1  UNL1       -0.3502
      7 C          61.2735   88.7200    9.9224 C.3     1  UNL1        0.1622
      8 C          61.9644   88.1479   11.1246 C.3     1  UNL1        0.1096
      9 C          63.5775   82.3364   11.3527 C.ar    1  UNL1        0.1390
     10 C          63.6368   81.6680   12.6942 C.ar    1  UNL1        0.0385
     11 C          63.4508   82.4765   13.9439 C.ar    1  UNL1        0.0242
     12 C          63.2054   83.9534   13.8521 C.ar    1  UNL1        0.1074
     13 C          63.1461   84.6218   12.5106 C.ar    1  UNL1        0.0759
     14 C          63.3322   83.8133   11.2609 C.ar    1  UNL1        0.0430
     15 N          63.0193   84.7619   15.1017 N.ar    1  UNL1       -0.1477
     16 N          64.1069   85.4299   15.8898 N.ar    1  UNL1       -0.1447
     17 C          63.4727   86.1253   17.0579 C.ar    1  UNL1        0.1446
     18 C          61.9933   85.8870   16.9917 C.ar    1  UNL1        0.1446
     19 N          61.7131   85.0444   15.7828 N.ar    1  UNL1       -0.1447
     20 C          63.0467   80.2202    9.9421 C.3     1  UNL1        0.2525
     21 O          63.7636   81.5278   10.1031 O.3     1  UNL1       -0.4714
     22 C          62.4100   89.0527   12.2349 C.3     1  UNL1        0.0487
     23 C          63.3649   90.1741   11.9511 C.ar    1  UNL1       -0.0203
     24 C          63.3233   90.8774   10.6269 C.ar    1  UNL1       -0.0042
     25 C          64.2782   91.9989   10.3430 C.ar    1  UNL1       -0.0002
     26 C          65.2746   92.4171   11.3834 C.ar    1  UNL1        0.0030
     27 C          65.3161   91.7137   12.7077 C.ar    1  UNL1        0.0355
     28 C          64.3612   90.5923   12.9915 C.ar    1  UNL1       -0.0012
     29 C          66.3124   92.1318   13.7480 C.ar    1  UNL1        0.1622
     30 N          65.8425   92.5671   15.1045 N.ar    1  UNL1       -0.2250
     31 C          66.8389   92.9853   16.1449 C.ar    1  UNL1        0.1022
     32 C          68.3052   92.9681   15.8288 C.ar    1  UNL1        0.0414
     33 C          68.7750   92.5328   14.4725 C.ar    1  UNL1        0.1022
     34 N          67.7787   92.1147   13.4321 N.ar    1  UNL1       -0.2250
@<TRIPOS>BOND
     1    20    21    1
     2    21     9    1
     3     9    10   ar
     4    10    11   ar
     5    11    12   ar
     6    12    15    1
     7    15    16   ar
     8    16    17   ar
     9    17    18   ar
    10    18    19   ar
    11    12    13   ar
    12    13     1    1
    13     1     2    2
    14     1     3   am
    15     3     4    1
    16     4     5    1
    17     5     6    1
    18     6     7    1
    19     7     8    1
    20     8    22    1
    21    22    23    1
    22    23    24   ar
    23    24    25   ar
    24    25    26   ar
    25    26    27   ar
    26    27    29    1
    27    29    30   ar
    28    30    31   ar
    29    31    32   ar
    30    32    33   ar
    31    33    34   ar
    32    27    28   ar
    33    13    14   ar
    34    14     9   ar
    35    19    15   ar
    36     8     3    1
    37    28    23   ar
    38    34    29   ar
@<TRIPOS>MOLECULE
*****
 34 38 0 0 0
SMALL
GASTEIGER

@<TRIPOS>ATOM
      1 C          62.6272   88.5048   11.5538 C.2     1  UNL1        0.2507
      2 O          62.5982   90.0045   11.5672 O.2     1  UNL1       -0.2698
      3 N          63.2913   87.7575   12.6719 N.am    1  UNL1       -0.2723
      4 C          63.3203   86.2578   12.6585 C.3     1  UNL1        0.1257
      5 C          63.9845   85.5105   13.7768 C.3     1  UNL1        0.1637
      6 O          64.6197   86.2628   14.9083 O.3     1  UNL1       -0.3502
      7 C          64.5907   87.7625   14.9218 C.3     1  UNL1        0.1622
      8 C          63.9266   88.5098   13.8036 C.3     1  UNL1        0.1096
      9 C          62.1629   86.0117    8.5011 C.ar    1  UNL1        0.1390
     10 C          60.7217   86.2479    8.1589 C.ar    1  UNL1        0.0385
     11 C          59.9157   87.2365    8.9482 C.ar    1  UNL1        0.0242
     12 C          60.5508   87.9888   10.0798 C.ar    1  UNL1        0.1074
     13 C          61.9920   87.7525   10.4221 C.ar    1  UNL1        0.0759
     14 C          62.7980   86.7639    9.6328 C.ar    1  UNL1        0.0430
     15 N          59.7448   88.9774   10.8692 N.ar    1  UNL1       -0.1477
     16 N          59.5359   90.4217   10.5225 N.ar    1  UNL1       -0.1447
     17 C          58.6682   91.0322   11.5828 C.ar    1  UNL1        0.1446
     18 C          58.3407   89.9651   12.5849 C.ar    1  UNL1        0.1446
     19 N          59.0061   88.6952   12.1438 N.ar    1  UNL1       -0.1447
     20 C          62.4477   84.5038    6.4047 C.3     1  UNL1        0.2525
     21 O          62.9689   85.0231    7.7118 O.3     1  UNL1       -0.4714
     22 C          63.8976   90.0095   13.8170 C.3     1  UNL1        0.0487
     23 C          65.1803   90.7849   13.7614 C.ar    1  UNL1       -0.0203
     24 C          66.1434   90.7248   14.9098 C.ar    1  UNL1       -0.0042
     25 C          67.4263   91.5003   14.8542 C.ar    1  UNL1       -0.0002
     26 C          67.7459   92.3359   13.6501 C.ar    1  UNL1        0.0030
     27 C          66.7828   92.3959   12.5017 C.ar    1  UNL1        0.0355
     28 C          65.5000   91.6205   12.5574 C.ar    1  UNL1       -0.0012
     29 C          67.1024   93.2315   11.2977 C.ar    1  UNL1        0.1622
     30 N          66.6743   94.6682   11.2467 N.ar    1  UNL1       -0.2250
     31 C          66.9940   95.5038   10.0427 C.ar    1  UNL1        0.1022
     32 C          67.7418   94.9026    8.8896 C.ar    1  UNL1        0.0414
     33 C          68.1699   93.4659    8.9407 C.ar    1  UNL1        0.1022
     34 N          67.8502   92.6303   10.1447 N.ar    1  UNL1       -0.2250
@<TRIPOS>BOND
     1    20    21    1
     2    21     9    1
     3     9    10   ar
     4    10    11   ar
     5    11    12   ar
     6    12    15    1
     7    15    16   ar
     8    16    17   ar
     9    17    18   ar
    10    18    19   ar
    11    12    13   ar
    12    13     1    1
    13     1     2    2
    14     1     3   am
    15     3     4    1
    16     4     5    1
    17     5     6    1
    18     6     7    1
    19     7     8    1
    20     8    22    1
    21    22    23    1
    22    23    24   ar
    23    24    25   ar
    24    25    26   ar
    25    26    27   ar
    26    27    29    1
    27    29    30   ar
    28    30    31   ar
    29    31    32   ar
    30    32    33   ar
    31    33    34   ar
    32    27    28   ar
    33    13    14   ar
    34    14     9   ar
    35    19    15   ar
    36     8     3    1
    37    28    23   ar
    38    34    29   ar
@<TRIPOS>MOLECULE
*****
 34 38 0 0 0
SMALL
GASTEIGER

@<TRIPOS>ATOM
      1 C          63.3728   87.8881   13.2077 C.2     1  UNL1        0.2507
      2 O          63.5787   89.0231   12.2488 O.2     1  UNL1       -0.2698
      3 N          63.3226   88.1527   14.6833 N.am    1  UNL1       -0.2723
      4 C          63.1167   87.0177   15.6421 C.3     1  UNL1        0.1257
      5 C          63.0666   87.2823   17.1178 C.3     1  UNL1        0.1637
      6 O          63.2223   88.6818   17.6345 O.3     1  UNL1       -0.3502
      7 C          63.4282   89.8168   16.6757 C.3     1  UNL1        0.1622
      8 C          63.4783   89.5523   15.2001 C.3     1  UNL1        0.1096
      9 C          63.8098   83.9625   12.8227 C.ar    1  UNL1        0.1390
     10 C          62.9056   83.6895   11.6574 C.ar    1  UNL1        0.0385
     11 C          62.1572   84.8161   11.0088 C.ar    1  UNL1        0.0242
     12 C          62.3129   86.2156   11.5255 C.ar    1  UNL1        0.1074
     13 C          63.2170   86.4886   12.6909 C.ar    1  UNL1        0.0759
     14 C          63.9655   85.3620   13.3394 C.ar    1  UNL1        0.0430
     15 N          61.5645   87.3422   10.8770 N.ar    1  UNL1       -0.1477
     16 N          61.8693   87.9486    9.5393 N.ar    1  UNL1       -0.1447
     17 C          60.8730   89.0414    9.2878 C.ar    1  UNL1        0.1446
     18 C          59.9524   89.1104   10.4700 C.ar    1  UNL1        0.1446
     19 N          60.3797   88.0602   11.4522 N.ar    1  UNL1       -0.1447
     20 C          63.9900   81.4479   13.4506 C.3     1  UNL1        0.2525
     21 O          64.5582   82.8359   13.4713 O.3     1  UNL1       -0.4714
     22 C          63.6842   90.6872   14.2412 C.3     1  UNL1        0.0487
     23 C          65.0579   91.2520   14.0314 C.ar    1  UNL1       -0.0203
     24 C          66.1207   91.0443   15.0693 C.ar    1  UNL1       -0.0042
     25 C          67.4944   91.6091   14.8596 C.ar    1  UNL1       -0.0002
     26 C          67.8053   92.3817   13.6120 C.ar    1  UNL1        0.0030
     27 C          66.7423   92.5894   12.5741 C.ar    1  UNL1        0.0355
     28 C          65.3687   92.0246   12.7838 C.ar    1  UNL1       -0.0012
     29 C          67.0532   93.3620   11.3265 C.ar    1  UNL1        0.1622
     30 N          67.7818   92.6986   10.1955 N.ar    1  UNL1       -0.2250
     31 C          68.0926   93.4712    8.9479 C.ar    1  UNL1        0.1022
     32 C          67.6748   94.9072    8.8313 C.ar    1  UNL1        0.0414
     33 C          66.9462   95.5705    9.9623 C.ar    1  UNL1        0.1022
     34 N          66.6354   94.7979   11.2099 N.ar    1  UNL1       -0.2250
@<TRIPOS>BOND
     1    20    21    1
     2    21     9    1
     3     9    10   ar
     4    10    11   ar
     5    11    12   ar
     6    12    15    1
     7    15    16   ar
     8    16    17   ar
     9    17    18   ar
    10    18    19   ar
    11    12    13   ar
    12    13     1    1
    13     1     2    2
    14     1     3   am
    15     3     4    1
    16     4     5    1
    17     5     6    1
    18     6     7    1
    19     7     8    1
    20     8    22    1
    21    22    23    1
    22    23    24   ar
    23    24    25   ar
    24    25    26   ar
    25    26    27   ar
    26    27    29    1
    27    29    30   ar
    28    30    31   ar
    29    31    32   ar
    30    32    33   ar
    31    33    34   ar
    32    27    28   ar
    33    13    14   ar
    34    14     9   ar
    35    19    15   ar
    36     8     3    1
    37    28    23   ar
    38    34    29   ar
@<TRIPOS>MOLECULE
*****
 34 38 0 0 0
SMALL
GASTEIGER

@<TRIPOS>ATOM
      1 C          63.0054   87.2720   12.2414 C.2     1  UNL1        0.2507
      2 O          63.6337   87.5918   13.5654 O.2     1  UNL1       -0.2698
      3 N          62.2970   88.3450   11.4688 N.am    1  UNL1       -0.2723
      4 C          61.6687   88.0252   10.1448 C.3     1  UNL1        0.1257
      5 C          60.9603   89.0982    9.3721 C.3     1  UNL1        0.1637
      6 O          60.8803   90.4909    9.9235 O.3     1  UNL1       -0.3502
      7 C          61.5086   90.8106   11.2475 C.3     1  UNL1        0.1622
      8 C          62.2169   89.7377   12.0201 C.3     1  UNL1        0.1096
      9 C          63.1647   84.2662    9.6550 C.ar    1  UNL1        0.1390
     10 C          63.2456   83.0940   10.5873 C.ar    1  UNL1        0.0385
     11 C          63.2465   83.3144   12.0710 C.ar    1  UNL1        0.0242
     12 C          63.1664   84.7071   12.6224 C.ar    1  UNL1        0.1074
     13 C          63.0855   85.8793   11.6901 C.ar    1  UNL1        0.0759
     14 C          63.0846   85.6588   10.2063 C.ar    1  UNL1        0.0430
     15 N          63.1673   84.9275   14.1061 N.ar    1  UNL1       -0.1477
     16 N          64.3587   85.2876   14.9433 N.ar    1  UNL1       -0.1447
     17 C          63.9047   85.4092   16.3677 C.ar    1  UNL1        0.1446
     18 C          62.4327   85.1243   16.4110 C.ar    1  UNL1        0.1446
     19 N          61.9770   84.8266   15.0132 N.ar    1  UNL1       -0.1447
     20 C          62.4148   84.9857    7.2738 C.3     1  UNL1        0.2525
     21 O          63.1638   84.0458    8.1713 O.3     1  UNL1       -0.4714
     22 C          62.8452   90.0574   13.3441 C.3     1  UNL1        0.0487
     23 C          64.1742   90.7509   13.3957 C.ar    1  UNL1       -0.0203
     24 C          65.0658   90.5757   14.5891 C.ar    1  UNL1       -0.0042
     25 C          66.3949   91.2691   14.6407 C.ar    1  UNL1       -0.0002
     26 C          66.8324   92.1379   13.4988 C.ar    1  UNL1        0.0030
     27 C          65.9407   92.3131   12.3053 C.ar    1  UNL1        0.0355
     28 C          64.6117   91.6197   12.2538 C.ar    1  UNL1       -0.0012
     29 C          66.3782   93.1819   11.1635 C.ar    1  UNL1        0.1622
     30 N          65.6763   94.4806   10.8974 N.ar    1  UNL1       -0.2250
     31 C          66.1138   95.3493    9.7555 C.ar    1  UNL1        0.1022
     32 C          67.2531   94.9194    8.8797 C.ar    1  UNL1        0.0414
     33 C          67.9550   93.6207    9.1458 C.ar    1  UNL1        0.1022
     34 N          67.5175   92.7520   10.2876 N.ar    1  UNL1       -0.2250
@<TRIPOS>BOND
     1    20    21    1
     2    21     9    1
     3     9    10   ar
     4    10    11   ar
     5    11    12   ar
     6    12    15    1
     7    15    16   ar
     8    16    17   ar
     9    17    18   ar
    10    18    19   ar
    11    12    13   ar
    12    13     1    1
    13     1     2    2
    14     1     3   am
    15     3     4    1
    16     4     5    1
    17     5     6    1
    18     6     7    1
    19     7     8    1
    20     8    22    1
    21    22    23    1
    22    23    24   ar
    23    24    25   ar
    24    25    26   ar
    25    26    27   ar
    26    27    29    1
    27    29    30   ar
    28    30    31   ar
    29    31    32   ar
    30    32    33   ar
    31    33    34   ar
    32    27    28   ar
    33    13    14   ar
    34    14     9   ar
    35    19    15   ar
    36     8     3    1
    37    28    23   ar
    38    34    29   ar
@<TRIPOS>MOLECULE
*****
 34 38 0 0 0
SMALL
GASTEIGER

@<TRIPOS>ATOM
      1 C          62.6959   87.2195   11.7178 C.2     1  UNL1        0.2507
      2 O          63.5913   87.7725   12.7867 O.2     1  UNL1       -0.2698
      3 N          61.5772   88.0552   11.1700 N.am    1  UNL1       -0.2723
      4 C          60.6819   87.5022   10.1011 C.3     1  UNL1        0.1257
      5 C          59.5631   88.3379    9.5534 C.3     1  UNL1        0.1637
      6 O          59.3397   89.7266   10.0745 O.3     1  UNL1       -0.3502
      7 C          60.2351   90.2796   11.1434 C.3     1  UNL1        0.1622
      8 C          61.3538   89.4440   11.6911 C.3     1  UNL1        0.1096
      9 C          63.1067   84.1803    9.1989 C.ar    1  UNL1        0.1390
     10 C          63.3661   83.0534   10.1543 C.ar    1  UNL1        0.0385
     11 C          63.4021   83.3152   11.6309 C.ar    1  UNL1        0.0242
     12 C          63.1787   84.7039   12.1520 C.ar    1  UNL1        0.1074
     13 C          62.9193   85.8307   11.1966 C.ar    1  UNL1        0.0759
     14 C          62.8833   85.5690    9.7201 C.ar    1  UNL1        0.0430
     15 N          63.2147   84.9657   13.6286 N.ar    1  UNL1       -0.1477
     16 N          64.3992   85.4534   14.4089 N.ar    1  UNL1       -0.1447
     17 C          63.9891   85.5749   15.8466 C.ar    1  UNL1        0.1446
     18 C          62.5511   85.1622   15.9549 C.ar    1  UNL1        0.1446
     19 N          62.0725   84.7857   14.5840 N.ar    1  UNL1       -0.1447
     20 C          62.3029   84.8350    6.8167 C.3     1  UNL1        0.2525
     21 O          63.0707   83.9185    7.7224 O.3     1  UNL1       -0.4714
     22 C          62.2492   89.9970   12.7600 C.3     1  UNL1        0.0487
     23 C          63.4316   90.8404   12.3856 C.ar    1  UNL1       -0.0203
     24 C          63.5505   91.3903   10.9952 C.ar    1  UNL1       -0.0042
     25 C          64.7330   92.2338   10.6207 C.ar    1  UNL1       -0.0002
     26 C          65.7967   92.5274   11.6368 C.ar    1  UNL1        0.0030
     27 C          65.6778   91.9775   13.0273 C.ar    1  UNL1        0.0355
     28 C          64.4953   91.1340   13.4017 C.ar    1  UNL1       -0.0012
     29 C          66.7415   92.2711   14.0434 C.ar    1  UNL1        0.1622
     30 N          68.1868   92.2553   13.6421 N.ar    1  UNL1       -0.2250
     31 C          69.2505   92.5489   14.6582 C.ar    1  UNL1        0.1022
     32 C          68.8688   92.8582   16.0755 C.ar    1  UNL1        0.0414
     33 C          67.4236   92.8739   16.4767 C.ar    1  UNL1        0.1022
     34 N          66.3599   92.5804   15.4607 N.ar    1  UNL1       -0.2250
@<TRIPOS>BOND
     1    20    21    1
     2    21     9    1
     3     9    10   ar
     4    10    11   ar
     5    11    12   ar
     6    12    15    1
     7    15    16   ar
     8    16    17   ar
     9    17    18   ar
    10    18    19   ar
    11    12    13   ar
    12    13     1    1
    13     1     2    2
    14     1     3   am
    15     3     4    1
    16     4     5    1
    17     5     6    1
    18     6     7    1
    19     7     8    1
    20     8    22    1
    21    22    23    1
    22    23    24   ar
    23    24    25   ar
    24    25    26   ar
    25    26    27   ar
    26    27    29    1
    27    29    30   ar
    28    30    31   ar
    29    31    32   ar
    30    32    33   ar
    31    33    34   ar
    32    27    28   ar
    33    13    14   ar
    34    14     9   ar
    35    19    15   ar
    36     8     3    1
    37    28    23   ar
    38    34    29   ar
@<TRIPOS>MOLECULE
*****
 34 38 0 0 0
SMALL
GASTEIGER

@<TRIPOS>ATOM
      1 C          63.3119   86.9409   13.2208 C.2     1  UNL1        0.2507
      2 O          63.7576   87.6341   14.4741 O.2     1  UNL1       -0.2698
      3 N          62.8431   87.7454   12.0449 N.am    1  UNL1       -0.2723
      4 C          62.3973   87.0522   10.7916 C.3     1  UNL1        0.1257
      5 C          61.9285   87.8568    9.6156 C.3     1  UNL1        0.1637
      6 O          61.9055   89.3546    9.6929 O.3     1  UNL1       -0.3502
      7 C          62.3513   90.0478   10.9462 C.3     1  UNL1        0.1622
      8 C          62.8201   89.2433   12.1222 C.3     1  UNL1        0.1096
      9 C          63.5901   83.2656   11.7493 C.ar    1  UNL1        0.1390
     10 C          63.3809   82.4474   12.9889 C.ar    1  UNL1        0.0385
     11 C          63.1487   83.1269   14.3058 C.ar    1  UNL1        0.0242
     12 C          63.1257   84.6247   14.3831 C.ar    1  UNL1        0.1074
     13 C          63.3349   85.4430   13.1435 C.ar    1  UNL1        0.0759
     14 C          63.5670   84.7634   11.8266 C.ar    1  UNL1        0.0430
     15 N          62.8935   85.3043   15.7001 N.ar    1  UNL1       -0.1477
     16 N          61.5589   85.6557   16.2877 N.ar    1  UNL1       -0.1447
     17 C          61.7957   86.3203   17.6114 C.ar    1  UNL1        0.1446
     18 C          63.2767   86.3796   17.8419 C.ar    1  UNL1        0.1446
     19 N          63.9552   85.7517   16.6606 N.ar    1  UNL1       -0.1447
     20 C          63.3719   81.1698   10.2295 C.3     1  UNL1        0.2525
     21 O          63.8222   82.5861   10.4323 O.3     1  UNL1       -0.4714
     22 C          63.2659   89.9365   13.3754 C.3     1  UNL1        0.0487
     23 C          64.5461   90.7181   13.3854 C.ar    1  UNL1       -0.0203
     24 C          65.5038   90.5740   14.5307 C.ar    1  UNL1       -0.0042
     25 C          66.7841   91.3556   14.5407 C.ar    1  UNL1       -0.0002
     26 C          67.1066   92.2813   13.4053 C.ar    1  UNL1        0.0030
     27 C          66.1487   92.4254   12.2599 C.ar    1  UNL1        0.0355
     28 C          64.8685   91.6438   12.2500 C.ar    1  UNL1       -0.0012
     29 C          66.4711   93.3511   11.1246 C.ar    1  UNL1        0.1622
     30 N          67.5402   92.9844   10.1383 N.ar    1  UNL1       -0.2250
     31 C          67.8626   93.9101    9.0029 C.ar    1  UNL1        0.1022
     32 C          67.1160   95.2026    8.8538 C.ar    1  UNL1        0.0414
     33 C          66.0470   95.5693    9.8401 C.ar    1  UNL1        0.1022
     34 N          65.7245   94.6436   10.9755 N.ar    1  UNL1       -0.2250
@<TRIPOS>BOND
     1    20    21    1
     2    21     9    1
     3     9    10   ar
     4    10    11   ar
     5    11    12   ar
     6    12    15    1
     7    15    16   ar
     8    16    17   ar
     9    17    18   ar
    10    18    19   ar
    11    12    13   ar
    12    13     1    1
    13     1     2    2
    14     1     3   am
    15     3     4    1
    16     4     5    1
    17     5     6    1
    18     6     7    1
    19     7     8    1
    20     8    22    1
    21    22    23    1
    22    23    24   ar
    23    24    25   ar
    24    25    26   ar
    25    26    27   ar
    26    27    29    1
    27    29    30   ar
    28    30    31   ar
    29    31    32   ar
    30    32    33   ar
    31    33    34   ar
    32    27    28   ar
    33    13    14   ar
    34    14     9   ar
    35    19    15   ar
    36     8     3    1
    37    28    23   ar
    38    34    29   ar
@<TRIPOS>MOLECULE
*****
 34 38 0 0 0
SMALL
GASTEIGER

@<TRIPOS>ATOM
      1 C          62.6494   88.0081   10.9465 C.2     1  UNL1        0.2507
      2 O          63.0585   89.4404   10.7696 O.2     1  UNL1       -0.2698
      3 N          63.0476   87.2619   12.1853 N.am    1  UNL1       -0.2723
      4 C          62.6385   85.8297   12.3622 C.3     1  UNL1        0.1257
      5 C          63.0367   85.0835   13.6010 C.3     1  UNL1        0.1637
      6 O          63.8440   85.7695   14.6629 O.3     1  UNL1       -0.3502
      7 C          64.2531   87.2018   14.4860 C.3     1  UNL1        0.1622
      8 C          63.8549   87.9480   13.2472 C.3     1  UNL1        0.1096
      9 C          61.6828   85.6252    7.9237 C.ar    1  UNL1        0.1390
     10 C          60.2276   85.9500    7.7608 C.ar    1  UNL1        0.0385
     11 C          59.5795   86.9609    8.6598 C.ar    1  UNL1        0.0242
     12 C          60.3868   87.6470    9.7216 C.ar    1  UNL1        0.1074
     13 C          61.8421   87.3221    9.8846 C.ar    1  UNL1        0.0759
     14 C          62.4901   86.3112    8.9856 C.ar    1  UNL1        0.0430
     15 N          59.7388   88.6578   10.6206 N.ar    1  UNL1       -0.1477
     16 N          59.6278   90.1302   10.3562 N.ar    1  UNL1       -0.1447
     17 C          58.9084   90.7562   11.5140 C.ar    1  UNL1        0.1446
     18 C          58.5747   89.6707   12.4941 C.ar    1  UNL1        0.1446
     19 N          59.0879   88.3739   11.9419 N.ar    1  UNL1       -0.1447
     20 C          61.8305   84.4271    5.6231 C.3     1  UNL1        0.2525
     21 O          62.3309   84.6143    7.0247 O.3     1  UNL1       -0.4714
     22 C          64.2640   89.3802   13.0703 C.3     1  UNL1        0.0487
     23 C          64.4898   90.2496   14.2716 C.ar    1  UNL1       -0.0203
     24 C          63.4128   90.3945   15.3055 C.ar    1  UNL1       -0.0042
     25 C          63.6386   91.2639   16.5069 C.ar    1  UNL1       -0.0002
     26 C          64.9413   91.9884   16.6743 C.ar    1  UNL1        0.0030
     27 C          66.0183   91.8434   15.6403 C.ar    1  UNL1        0.0355
     28 C          65.7925   90.9741   14.4390 C.ar    1  UNL1       -0.0012
     29 C          67.3210   92.5679   15.8076 C.ar    1  UNL1        0.1622
     30 N          67.4067   94.0356   15.5097 N.ar    1  UNL1       -0.2250
     31 C          68.7094   94.7600   15.6770 C.ar    1  UNL1        0.1022
     32 C          69.9265   94.0168   16.1423 C.ar    1  UNL1        0.0414
     33 C          69.8408   92.5492   16.4403 C.ar    1  UNL1        0.1022
     34 N          68.5381   91.8248   16.2729 N.ar    1  UNL1       -0.2250
@<TRIPOS>BOND
     1    20    21    1
     2    21     9    1
     3     9    10   ar
     4    10    11   ar
     5    11    12   ar
     6    12    15    1
     7    15    16   ar
     8    16    17   ar
     9    17    18   ar
    10    18    19   ar
    11    12    13   ar
    12    13     1    1
    13     1     2    2
    14     1     3   am
    15     3     4    1
    16     4     5    1
    17     5     6    1
    18     6     7    1
    19     7     8    1
    20     8    22    1
    21    22    23    1
    22    23    24   ar
    23    24    25   ar
    24    25    26   ar
    25    26    27   ar
    26    27    29    1
    27    29    30   ar
    28    30    31   ar
    29    31    32   ar
    30    32    33   ar
    31    33    34   ar
    32    27    28   ar
    33    13    14   ar
    34    14     9   ar
    35    19    15   ar
    36     8     3    1
    37    28    23   ar
    38    34    29   ar
