@<TRIPOS>MOLECULE
*****
 41 46 0 0 0
SMALL
GASTEIGER

@<TRIPOS>ATOM
      1 N          60.1842   88.8761    8.6325 N.3     1  UNL1       -0.2688
      2 C          61.4500   88.0715    8.6543 C.3     1  UNL1        0.0741
      3 C          62.3716   88.1550    9.8347 C.3     1  UNL1        0.0372
      4 C          62.0275   89.0432   10.9935 C.3     1  UNL1        0.0799
      5 C          60.7618   89.8478   10.9718 C.3     1  UNL1        0.0372
      6 C          59.8401   89.7642    9.7913 C.3     1  UNL1        0.0741
      7 N          62.9492   89.1268   12.1740 N.am    1  UNL1       -0.2618
      8 C          63.4898   90.3864   12.7830 C.2     1  UNL1        0.3074
      9 O          63.2037   91.7837   12.3186 O.2     1  UNL1       -0.2523
     10 N          64.3668   90.0035   13.9381 N.am    1  UNL1       -0.2635
     11 C          64.3682   88.5071   14.0430 C.3     1  UNL1        0.1192
     12 C          63.4921   87.9653   12.9527 C.3     1  UNL1        0.1191
     13 C          65.1117   90.9507   14.8316 C.3     1  UNL1        0.0819
     14 C          64.4270   91.5539   16.0221 C.3     1  UNL1        0.0520
     15 C          65.1718   92.5010   16.9156 C.3     1  UNL1        0.1439
     16 O          66.6013   92.8449   16.6184 O.3     1  UNL1       -0.3537
     17 C          67.2860   92.2417   15.4278 C.3     1  UNL1        0.1439
     18 C          66.5411   91.2946   14.5344 C.3     1  UNL1        0.0520
     19 C          63.2086   86.5164   12.6876 C.ar    1  UNL1       -0.0026
     20 C          63.7301   85.4667   13.6236 C.ar    1  UNL1       -0.0026
     21 C          63.4467   84.0178   13.3586 C.ar    1  UNL1       -0.0003
     22 C          62.6416   83.6185   12.1576 C.ar    1  UNL1       -0.0000
     23 C          62.1201   84.6682   11.2216 C.ar    1  UNL1       -0.0003
     24 C          62.4036   86.1171   11.4866 C.ar    1  UNL1       -0.0026
     25 C          59.2626   88.7925    7.4521 C.3     1  UNL1        0.1007
     26 C          59.4676   91.9091    4.2124 C.ar    1  UNL1        0.1107
     27 C          58.1438   91.5348    4.8104 C.ar    1  UNL1        0.0255
     28 C          58.0755   90.4960    5.8903 C.ar    1  UNL1        0.0007
     29 C          59.3309   89.8314    6.3722 C.ar    1  UNL1        0.0131
     30 C          60.6546   90.2056    5.7741 C.ar    1  UNL1        0.0965
     31 N          60.7230   91.2444    4.6942 N.ar    1  UNL1       -0.2376
     32 S          59.5358   92.9479    3.1325 S.3     1  UNL1       -0.0680
     33 C          63.4599   93.8499    1.1231 C.ar    1  UNL1        0.0140
     34 C          62.3474   94.8551    1.0813 C.ar    1  UNL1        0.0016
     35 C          61.0394   94.5544    1.7511 C.ar    1  UNL1        0.0066
     36 C          60.8439   93.2486    2.4627 C.ar    1  UNL1        0.0309
     37 C          61.9564   92.2434    2.5044 C.ar    1  UNL1        0.0066
     38 C          63.2644   92.5440    1.8346 C.ar    1  UNL1        0.0016
     39 O          64.8913   95.3409   -0.4512 O.co2   1  UNL1       -0.5446
     40 C          64.7680   94.1506    0.4532 C.2     1  UNL1        0.0729
     41 O          65.9527   93.2611    0.6879 O.co2   1  UNL1       -0.5446
@<TRIPOS>UNITY_ATOM_ATTR
39 1
charge -1
@<TRIPOS>BOND
     1    39    40   ar
     2    40    41   ar
     3    40    33    1
     4    33    34   ar
     5    34    35   ar
     6    35    36   ar
     7    36    32    1
     8    32    26    1
     9    26    27   ar
    10    27    28   ar
    11    28    29   ar
    12    29    25    1
    13    25     1    1
    14     1     2    1
    15     2     3    1
    16     3     4    1
    17     4     7    1
    18     7     8   am
    19     8     9    2
    20     8    10   am
    21    10    13    1
    22    13    14    1
    23    14    15    1
    24    15    16    1
    25    16    17    1
    26    17    18    1
    27    10    11    1
    28    11    12    1
    29    12    19    1
    30    19    20   ar
    31    20    21   ar
    32    21    22   ar
    33    22    23   ar
    34    23    24   ar
    35     4     5    1
    36     5     6    1
    37    29    30   ar
    38    30    31   ar
    39    36    37   ar
    40    37    38   ar
    41    38    33   ar
    42    31    26   ar
    43     6     1    1
    44    12     7    1
    45    24    19   ar
    46    18    13    1
@<TRIPOS>MOLECULE
*****
 41 46 0 0 0
SMALL
GASTEIGER

@<TRIPOS>ATOM
      1 N          59.3543   89.0780    7.7156 N.3     1  UNL1       -0.2688
      2 C          59.8466   87.6716    7.5436 C.3     1  UNL1        0.0741
      3 C          60.7042   87.0425    8.6013 C.3     1  UNL1        0.0372
      4 C          61.0694   87.8198    9.8311 C.3     1  UNL1        0.0799
      5 C          60.5771   89.2262   10.0032 C.3     1  UNL1        0.0372
      6 C          59.7195   89.8553    8.9454 C.3     1  UNL1        0.0741
      7 N          61.9270   87.1907   10.8888 N.am    1  UNL1       -0.2618
      8 C          61.9256   85.7423   11.2788 C.2     1  UNL1        0.3074
      9 O          61.0664   84.6687   10.6796 O.2     1  UNL1       -0.2523
     10 N          62.9342   85.5560   12.3733 N.am    1  UNL1       -0.2635
     11 C          63.5591   86.8893   12.6597 C.3     1  UNL1        0.1192
     12 C          62.9365   87.8996   11.7423 C.3     1  UNL1        0.1191
     13 C          63.2608   84.2633   13.0607 C.3     1  UNL1        0.0819
     14 C          63.6834   83.0711   12.2545 C.3     1  UNL1        0.0520
     15 C          64.0100   81.7784   12.9418 C.3     1  UNL1        0.1439
     16 O          63.9138   81.6780   14.4354 O.3     1  UNL1       -0.3537
     17 C          63.4912   82.8703   15.2415 C.3     1  UNL1        0.1439
     18 C          63.1647   84.1629   14.5542 C.3     1  UNL1        0.0520
     19 C          63.2658   89.3620   11.6879 C.ar    1  UNL1       -0.0026
     20 C          63.1956   90.0985   10.3830 C.ar    1  UNL1       -0.0026
     21 C          63.5248   91.5608   10.3285 C.ar    1  UNL1       -0.0003
     22 C          63.9243   92.2868   11.5789 C.ar    1  UNL1       -0.0000
     23 C          63.9944   91.5503   12.8838 C.ar    1  UNL1       -0.0003
     24 C          63.6652   90.0879   12.9382 C.ar    1  UNL1       -0.0026
     25 C          58.4967   89.7071    6.6579 C.3     1  UNL1        0.1007
     26 C          60.3557   92.3734    3.5458 C.ar    1  UNL1        0.1107
     27 C          61.2082   91.4022    4.3074 C.ar    1  UNL1        0.0255
     28 C          60.5885   90.5135    5.3448 C.ar    1  UNL1        0.0007
     29 C          59.1164   90.5959    5.6205 C.ar    1  UNL1        0.0131
     30 C          58.2639   91.5670    4.8589 C.ar    1  UNL1        0.0965
     31 N          58.8835   92.4558    3.8215 N.ar    1  UNL1       -0.2376
     32 S          60.9753   93.2621    2.5084 S.3     1  UNL1       -0.0680
     33 C          58.8915   93.9212   -1.4252 C.ar    1  UNL1        0.0140
     34 C          59.4979   92.5855   -1.1123 C.ar    1  UNL1        0.0016
     35 C          60.1925   92.3658    0.1990 C.ar    1  UNL1        0.0066
     36 C          60.2807   93.4818    1.1972 C.ar    1  UNL1        0.0309
     37 C          59.6743   94.8176    0.8843 C.ar    1  UNL1        0.0066
     38 C          58.9797   95.0373   -0.4269 C.ar    1  UNL1        0.0016
     39 O          57.0736   95.1303   -2.8336 O.co2   1  UNL1       -0.5446
     40 C          58.1969   94.1409   -2.7364 C.2     1  UNL1        0.0729
     41 O          58.6255   93.3713   -3.9504 O.co2   1  UNL1       -0.5446
@<TRIPOS>UNITY_ATOM_ATTR
39 1
charge -1
@<TRIPOS>BOND
     1    39    40   ar
     2    40    41   ar
     3    40    33    1
     4    33    34   ar
     5    34    35   ar
     6    35    36   ar
     7    36    32    1
     8    32    26    1
     9    26    27   ar
    10    27    28   ar
    11    28    29   ar
    12    29    25    1
    13    25     1    1
    14     1     2    1
    15     2     3    1
    16     3     4    1
    17     4     7    1
    18     7     8   am
    19     8     9    2
    20     8    10   am
    21    10    13    1
    22    13    14    1
    23    14    15    1
    24    15    16    1
    25    16    17    1
    26    17    18    1
    27    10    11    1
    28    11    12    1
    29    12    19    1
    30    19    20   ar
    31    20    21   ar
    32    21    22   ar
    33    22    23   ar
    34    23    24   ar
    35     4     5    1
    36     5     6    1
    37    29    30   ar
    38    30    31   ar
    39    36    37   ar
    40    37    38   ar
    41    38    33   ar
    42    31    26   ar
    43     6     1    1
    44    12     7    1
    45    24    19   ar
    46    18    13    1
@<TRIPOS>MOLECULE
*****
 41 46 0 0 0
SMALL
GASTEIGER

@<TRIPOS>ATOM
      1 N          63.7382   88.3797   15.4325 N.3     1  UNL1       -0.2688
      2 C          63.8530   87.9077   14.0133 C.3     1  UNL1        0.0741
      3 C          64.0427   88.9011   12.9056 C.3     1  UNL1        0.0372
      4 C          64.1176   90.3666   13.2170 C.3     1  UNL1        0.0799
      5 C          64.0028   90.8386   14.6361 C.3     1  UNL1        0.0372
      6 C          63.8131   89.8451   15.7439 C.3     1  UNL1        0.0741
      7 N          64.3072   91.3600   12.1092 N.am    1  UNL1       -0.2618
      8 C          65.3442   92.4429   12.0640 C.2     1  UNL1        0.3074
      9 O          66.3735   92.7225   13.1186 O.2     1  UNL1       -0.2523
     10 N          65.1711   93.1971   10.7790 N.am    1  UNL1       -0.2635
     11 C          64.0271   92.5803   10.0300 C.3     1  UNL1        0.1192
     12 C          63.4932   91.4449   10.8521 C.3     1  UNL1        0.1191
     13 C          65.9969   94.3633   10.3231 C.3     1  UNL1        0.0819
     14 C          65.9314   95.6648   11.0659 C.3     1  UNL1        0.0520
     15 C          66.7572   96.8311   10.6100 C.3     1  UNL1        0.1439
     16 O          67.6486   96.6958    9.4112 O.3     1  UNL1       -0.3537
     17 C          67.7142   95.3943    8.6684 C.3     1  UNL1        0.1439
     18 C          66.8883   94.2281    9.1243 C.3     1  UNL1        0.0520
     19 C          62.3467   90.5514   10.4821 C.ar    1  UNL1       -0.0026
     20 C          62.6030   89.2642    9.7559 C.ar    1  UNL1       -0.0026
     21 C          61.4565   88.3706    9.3859 C.ar    1  UNL1       -0.0003
     22 C          60.0535   88.7642    9.7420 C.ar    1  UNL1       -0.0000
     23 C          59.7972   90.0514   10.4682 C.ar    1  UNL1       -0.0003
     24 C          60.9437   90.9449   10.8383 C.ar    1  UNL1       -0.0026
     25 C          63.5486   87.3863   16.5402 C.3     1  UNL1        0.1007
     26 C          63.0284   83.0202   15.5825 C.ar    1  UNL1        0.1107
     27 C          64.3640   83.6760   15.3920 C.ar    1  UNL1        0.0255
     28 C          64.5374   85.1313   15.7113 C.ar    1  UNL1        0.0007
     29 C          63.3752   85.9309   16.2210 C.ar    1  UNL1        0.0131
     30 C          62.0396   85.2753   16.4115 C.ar    1  UNL1        0.0965
     31 N          61.8662   83.8199   16.0923 N.ar    1  UNL1       -0.2376
     32 S          62.8551   81.5649   15.2633 S.3     1  UNL1       -0.0680
     33 C          62.8472   80.1864   10.9797 C.ar    1  UNL1        0.0140
     34 C          63.2344   81.5967   11.3130 C.ar    1  UNL1        0.0016
     35 C          63.2371   82.0562   12.7409 C.ar    1  UNL1        0.0066
     36 C          62.8525   81.1054   13.8354 C.ar    1  UNL1        0.0309
     37 C          62.4652   79.6951   13.5021 C.ar    1  UNL1        0.0066
     38 C          62.4626   79.2356   12.0742 C.ar    1  UNL1        0.0016
     39 O          63.9859   78.9083    9.0252 O.co2   1  UNL1       -0.5446
     40 C          62.8446   79.7269    9.5518 C.2     1  UNL1        0.0729
     41 O          61.7006   80.0860    8.6504 O.co2   1  UNL1       -0.5446
@<TRIPOS>UNITY_ATOM_ATTR
39 1
charge -1
@<TRIPOS>BOND
     1    39    40   ar
     2    40    41   ar
     3    40    33    1
     4    33    34   ar
     5    34    35   ar
     6    35    36   ar
     7    36    32    1
     8    32    26    1
     9    26    27   ar
    10    27    28   ar
    11    28    29   ar
    12    29    25    1
    13    25     1    1
    14     1     2    1
    15     2     3    1
    16     3     4    1
    17     4     7    1
    18     7     8   am
    19     8     9    2
    20     8    10   am
    21    10    13    1
    22    13    14    1
    23    14    15    1
    24    15    16    1
    25    16    17    1
    26    17    18    1
    27    10    11    1
    28    11    12    1
    29    12    19    1
    30    19    20   ar
    31    20    21   ar
    32    21    22   ar
    33    22    23   ar
    34    23    24   ar
    35     4     5    1
    36     5     6    1
    37    29    30   ar
    38    30    31   ar
    39    36    37   ar
    40    37    38   ar
    41    38    33   ar
    42    31    26   ar
    43     6     1    1
    44    12     7    1
    45    24    19   ar
    46    18    13    1
