@<TRIPOS>MOLECULE
*****
 37 42 0 0 0
SMALL
GASTEIGER

@<TRIPOS>ATOM
      1 C          62.8334   89.1188   11.9392 C.ar    1  UNL1        0.1632
      2 N          61.8321   89.6901   10.9795 N.ar    1  UNL1       -0.2310
      3 C          61.1085   88.7873   10.0247 C.ar    1  UNL1        0.0619
      4 C          61.3863   87.3133   10.0296 C.ar    1  UNL1        0.0375
      5 C          62.3876   86.7420   10.9892 C.ar    1  UNL1        0.1318
      6 N          63.1112   87.6448   11.9441 N.ar    1  UNL1       -0.2122
      7 C          60.6628   86.4106    9.0748 C.3     1  UNL1        0.0841
      8 C          59.7465   85.9170    7.9946 C.3     1  UNL1        0.0220
      9 C          59.0080   87.0979    7.4378 C.3     1  UNL1        0.0181
     10 C          59.4679   88.3214    8.1737 C.3     1  UNL1        0.0638
     11 C          60.1072   89.3587    9.0650 C.3     1  UNL1        0.0616
     12 N          60.4906   87.8966    9.1855 N.3     1  UNL1       -0.2681
     13 N          62.6654   85.2680   10.9941 N.pl3   1  UNL1       -0.2900
     14 C          62.3831   84.4556   12.2231 C.3     1  UNL1        0.1242
     15 C          62.6609   82.9816   12.2280 C.3     1  UNL1        0.1636
     16 O          63.2210   82.3199   11.0039 O.3     1  UNL1       -0.3502
     17 C          63.5034   83.1322    9.7749 C.3     1  UNL1        0.1618
     18 C          63.2256   84.6062    9.7700 C.3     1  UNL1        0.1038
     19 C          63.5079   85.4185    8.5410 C.3     1  UNL1        0.0241
     20 C          65.0038   91.8270   14.8036 C.ar    1  UNL1        0.0516
     21 C          64.2571   90.6329   15.3200 C.ar    1  UNL1        0.0148
     22 C          63.5337   89.7302   14.3652 C.ar    1  UNL1        0.0043
     23 C          63.5569   90.0215   12.8939 C.ar    1  UNL1        0.0359
     24 C          64.3035   91.2156   12.3775 C.ar    1  UNL1        0.0043
     25 C          65.0270   92.1183   13.3323 C.ar    1  UNL1        0.0148
     26 N          67.8339   94.1135   16.3886 N.am    1  UNL1       -0.2887
     27 C          67.1105   93.2108   15.4338 C.2     1  UNL1        0.3045
     28 O          67.7702   92.7893   14.1543 O.2     1  UNL1       -0.2525
     29 N          65.7273   92.7297   15.7584 N.am    1  UNL1       -0.2683
     30 H          67.4009   94.3902   17.2284 H       1  UNL1        0.1510
     31 H          65.2943   93.0064   16.5981 H       1  UNL1        0.1564
     32 C          70.2876   93.6093   15.6992 C.3     1  UNL1        0.0230
     33 C          69.2170   94.5946   16.0640 C.3     1  UNL1        0.0910
     34 C          61.2142   88.7993   10.1403 C.3     1  UNL1        0.1174
     35 C          62.4864   89.5925   10.0927 C.3     1  UNL1        0.1606
     36 O          62.2374   90.0759   11.4906 O.3     1  UNL1       -0.3507
     37 C          60.9651   89.2827   11.5382 C.3     1  UNL1        0.1606
@<TRIPOS>BOND
     1    32    33    1
     2    33    26    1
     3    26    27   am
     4    27    28    2
     5    27    29   am
     6    29    20    1
     7    20    21   ar
     8    21    22   ar
     9    22    23   ar
    10    23     1    1
    11     1     2   ar
    12     2     3   ar
    13     3     4   ar
    14     4     5   ar
    15     5    13    1
    16    13    14    1
    17    14    15    1
    18    15    16    1
    19    16    17    1
    20    17    18    1
    21    18    19    1
    22     5     6   ar
    23     4     7    1
    24     7     8    1
    25     8     9    1
    26    10     9    1
    27    10    11    1
    28    10    12    1
    29    12    34    1
    30    34    35    1
    31    35    36    1
    32    36    37    1
    33    23    24   ar
    34    24    25   ar
    35    25    20   ar
    36     6     1   ar
    37    12     7    1
    38    37    34    1
    39    11     3    1
    40    18    13    1
    41    26    30    1
    42    29    31    1
@<TRIPOS>MOLECULE
*****
 37 42 0 0 0
SMALL
GASTEIGER

@<TRIPOS>ATOM
      1 C          63.8921   90.7615   11.7245 C.ar    1  UNL1        0.1632
      2 N          64.1211   90.5788   13.1957 N.ar    1  UNL1       -0.2310
      3 C          65.0510   91.4988   13.9299 C.ar    1  UNL1        0.0619
      4 C          65.7518   92.6014   13.1931 C.ar    1  UNL1        0.0375
      5 C          65.5228   92.7841   11.7219 C.ar    1  UNL1        0.1318
      6 N          64.5929   91.8641   10.9877 N.ar    1  UNL1       -0.2122
      7 C          66.6816   93.5213   13.9274 C.3     1  UNL1        0.0841
      8 C          67.4818   94.1669   15.0196 C.3     1  UNL1        0.0220
      9 C          67.2093   93.4248   16.2943 C.3     1  UNL1        0.0181
     10 C          66.2408   92.3205   15.9900 C.3     1  UNL1        0.0638
     11 C          65.2799   91.3160   15.4011 C.3     1  UNL1        0.0616
     12 N          65.9147   92.3802   14.5271 N.3     1  UNL1       -0.2681
     13 N          66.2237   93.8868   10.9851 N.pl3   1  UNL1       -0.2900
     14 C          65.8112   95.3128   11.2001 C.3     1  UNL1        0.1242
     15 C          66.5120   96.4154   10.4632 C.3     1  UNL1        0.1636
     16 O          67.6254   96.0920    9.5114 O.3     1  UNL1       -0.3502
     17 C          68.0378   94.6660    9.2964 C.3     1  UNL1        0.1618
     18 C          67.3370   93.5633   10.0333 C.3     1  UNL1        0.1038
     19 C          67.7495   92.1373    9.8183 C.3     1  UNL1        0.0241
     20 C          61.1025   88.0017    9.5218 C.ar    1  UNL1        0.0516
     21 C          61.1596   89.4562    9.1595 C.ar    1  UNL1        0.0148
     22 C          62.0895   90.3761    9.8938 C.ar    1  UNL1        0.0043
     23 C          62.9623   89.8416   10.9904 C.ar    1  UNL1        0.0359
     24 C          62.9053   88.3871   11.3527 C.ar    1  UNL1        0.0043
     25 C          61.9754   87.4672   10.6184 C.ar    1  UNL1        0.0148
     26 N          59.7964   85.1050    7.1444 N.am    1  UNL1       -0.2887
     27 C          60.7262   86.0248    7.8785 C.2     1  UNL1        0.3045
     28 O          62.2097   85.8877    7.7038 O.2     1  UNL1       -0.2525
     29 N          60.1727   87.0818    8.7876 N.am    1  UNL1       -0.2683
     30 H          58.8227   85.1950    7.2591 H       1  UNL1        0.1510
     31 H          59.1990   87.1718    8.9023 H       1  UNL1        0.1564
     32 C          61.6586   84.2698    5.5367 C.3     1  UNL1        0.0230
     33 C          60.3499   84.0480    6.2353 C.3     1  UNL1        0.0910
     34 C          64.9848   91.4603   13.7928 C.3     1  UNL1        0.1174
     35 C          63.5655   91.5464   13.3154 C.3     1  UNL1        0.1606
     36 O          63.6699   90.1593   12.7543 O.3     1  UNL1       -0.3507
     37 C          65.0893   90.0731   13.2318 C.3     1  UNL1        0.1606
@<TRIPOS>BOND
     1    32    33    1
     2    33    26    1
     3    26    27   am
     4    27    28    2
     5    27    29   am
     6    29    20    1
     7    20    21   ar
     8    21    22   ar
     9    22    23   ar
    10    23     1    1
    11     1     2   ar
    12     2     3   ar
    13     3     4   ar
    14     4     5   ar
    15     5    13    1
    16    13    14    1
    17    14    15    1
    18    15    16    1
    19    16    17    1
    20    17    18    1
    21    18    19    1
    22     5     6   ar
    23     4     7    1
    24     7     8    1
    25     8     9    1
    26    10     9    1
    27    10    11    1
    28    10    12    1
    29    12    34    1
    30    34    35    1
    31    35    36    1
    32    36    37    1
    33    23    24   ar
    34    24    25   ar
    35    25    20   ar
    36     6     1   ar
    37    12     7    1
    38    37    34    1
    39    11     3    1
    40    18    13    1
    41    26    30    1
    42    29    31    1
@<TRIPOS>MOLECULE
*****
 37 42 0 0 0
SMALL
GASTEIGER

@<TRIPOS>ATOM
      1 C          45.4525   75.6051   18.8004 C.ar    1  UNL1        0.1632
      2 N          45.4806   75.9446   20.2612 N.ar    1  UNL1       -0.2310
      3 C          45.3852   77.3757   20.7006 C.ar    1  UNL1        0.0619
      4 C          45.2617   78.4672   19.6792 C.ar    1  UNL1        0.0375
      5 C          45.2336   78.1277   18.2184 C.ar    1  UNL1        0.1318
      6 N          45.3290   76.6966   17.7790 N.ar    1  UNL1       -0.2122
      7 C          45.1664   79.8983   20.1186 C.3     1  UNL1        0.0841
      8 C          45.1027   81.1251   20.9792 C.3     1  UNL1        0.0220
      9 C          45.1903   80.6909   22.4124 C.3     1  UNL1        0.0181
     10 C          45.3080   79.1957   22.4374 C.3     1  UNL1        0.0638
     11 C          45.4133   77.7153   22.1614 C.3     1  UNL1        0.0616
     12 N          45.2932   78.7058   21.0197 N.3     1  UNL1       -0.2681
     13 N          45.1101   79.2192   17.1969 N.pl3   1  UNL1       -0.2900
     14 C          43.7805   79.5091   16.5661 C.3     1  UNL1        0.1242
     15 C          43.6570   80.6006   15.5447 C.3     1  UNL1        0.1636
     16 O          44.8631   81.4022   15.1541 O.3     1  UNL1       -0.3502
     17 C          46.1928   81.1124   15.7849 C.3     1  UNL1        0.1618
     18 C          46.3163   80.0209   16.8063 C.3     1  UNL1        0.1038
     19 C          47.6459   79.7310   17.4372 C.3     1  UNL1        0.0241
     20 C          45.7385   71.3120   17.4824 C.ar    1  UNL1        0.0516
     21 C          44.6672   72.1992   16.9209 C.ar    1  UNL1        0.0148
     22 C          44.5719   73.6302   17.3603 C.ar    1  UNL1        0.0043
     23 C          45.5478   74.1741   18.3611 C.ar    1  UNL1        0.0359
     24 C          46.6191   73.2870   18.9226 C.ar    1  UNL1        0.0043
     25 C          46.7144   71.8559   18.4833 C.ar    1  UNL1        0.0148
     26 N          46.2387   68.1237   15.1728 N.am    1  UNL1       -0.2887
     27 C          46.1435   69.5547   15.6121 C.2     1  UNL1        0.3045
     28 O          46.3579   70.6596   14.6204 O.2     1  UNL1       -0.2525
     29 N          45.8338   69.8809   17.0431 N.am    1  UNL1       -0.2683
     30 H          46.0980   67.3986   15.8237 H       1  UNL1        0.1510
     31 H          45.6931   69.1558   17.6939 H       1  UNL1        0.1564
     32 C          45.7078   68.3752   12.6420 C.3     1  UNL1        0.0230
     33 C          46.5484   67.7975   13.7418 C.3     1  UNL1        0.0910
     34 C          45.3886   77.2748   20.5803 C.3     1  UNL1        0.1174
     35 C          44.3980   76.1900   20.2775 C.3     1  UNL1        0.1606
     36 O          45.5235   75.2510   19.9589 O.3     1  UNL1       -0.3507
     37 C          46.5142   76.3359   20.2618 C.3     1  UNL1        0.1606
@<TRIPOS>BOND
     1    32    33    1
     2    33    26    1
     3    26    27   am
     4    27    28    2
     5    27    29   am
     6    29    20    1
     7    20    21   ar
     8    21    22   ar
     9    22    23   ar
    10    23     1    1
    11     1     2   ar
    12     2     3   ar
    13     3     4   ar
    14     4     5   ar
    15     5    13    1
    16    13    14    1
    17    14    15    1
    18    15    16    1
    19    16    17    1
    20    17    18    1
    21    18    19    1
    22     5     6   ar
    23     4     7    1
    24     7     8    1
    25     8     9    1
    26    10     9    1
    27    10    11    1
    28    10    12    1
    29    12    34    1
    30    34    35    1
    31    35    36    1
    32    36    37    1
    33    23    24   ar
    34    24    25   ar
    35    25    20   ar
    36     6     1   ar
    37    12     7    1
    38    37    34    1
    39    11     3    1
    40    18    13    1
    41    26    30    1
    42    29    31    1
@<TRIPOS>MOLECULE
*****
 37 42 0 0 0
SMALL
GASTEIGER

@<TRIPOS>ATOM
      1 C          60.7516   93.9501   -1.5436 C.ar    1  UNL1        0.1632
      2 N          61.6492   95.1370   -1.7318 N.ar    1  UNL1       -0.2310
      3 C          62.6800   95.4699   -0.6941 C.ar    1  UNL1        0.0619
      4 C          62.8132   94.6158    0.5318 C.ar    1  UNL1        0.0375
      5 C          61.9156   93.4288    0.7200 C.ar    1  UNL1        0.1318
      6 N          60.8848   93.0960   -0.3177 N.ar    1  UNL1       -0.2122
      7 C          63.8439   94.9487    1.5694 C.3     1  UNL1        0.0841
      8 C          64.9606   95.6294    2.3040 C.3     1  UNL1        0.0220
      9 C          65.4020   96.8077    1.4876 C.3     1  UNL1        0.0181
     10 C          64.5581   96.8554    0.2484 C.3     1  UNL1        0.0638
     11 C          63.5777   96.6569   -0.8823 C.3     1  UNL1        0.0616
     12 N          63.5951   95.7064    0.2990 N.3     1  UNL1       -0.2681
     13 N          62.0487   92.5747    1.9459 N.pl3   1  UNL1       -0.2900
     14 C          63.2846   91.7509    2.1553 C.3     1  UNL1        0.1242
     15 C          63.4177   90.8968    3.3812 C.3     1  UNL1        0.1636
     16 O          62.3150   90.8666    4.3976 O.3     1  UNL1       -0.3502
     17 C          61.0791   91.6904    4.1882 C.3     1  UNL1        0.1618
     18 C          60.9460   92.5445    2.9623 C.3     1  UNL1        0.1038
     19 C          59.7101   93.3684    2.7529 C.3     1  UNL1        0.0241
     20 C          57.6593   92.9516   -4.6566 C.ar    1  UNL1        0.0516
     21 C          57.4975   92.4522   -3.2513 C.ar    1  UNL1        0.0148
     22 C          58.5282   92.7851   -2.2137 C.ar    1  UNL1        0.0043
     23 C          59.7209   93.6173   -2.5812 C.ar    1  UNL1        0.0359
     24 C          59.8828   94.1166   -3.9864 C.ar    1  UNL1        0.0043
     25 C          58.8520   93.7837   -5.0240 C.ar    1  UNL1        0.0148
     26 N          54.7317   91.0725   -6.5664 N.am    1  UNL1       -0.2887
     27 C          55.7624   91.4053   -5.5287 C.2     1  UNL1        0.3045
     28 O          55.9270   90.5247   -4.3257 O.2     1  UNL1       -0.2525
     29 N          56.6285   92.6187   -5.6942 N.am    1  UNL1       -0.2683
     30 H          54.6236   91.6505   -7.3560 H       1  UNL1        0.1510
     31 H          56.5205   93.1967   -6.4838 H       1  UNL1        0.1564
     32 C          52.6574   89.6756   -7.2709 C.3     1  UNL1        0.0230
     33 C          53.8655   89.8591   -6.4009 C.3     1  UNL1        0.0910
     34 C          62.5644   95.3735   -0.7387 C.3     1  UNL1        0.1174
     35 C          62.5605   94.5867   -2.0157 C.3     1  UNL1        0.1606
     36 O          61.1066   94.9027   -2.2061 O.3     1  UNL1       -0.3507
     37 C          61.1105   95.6896   -0.9290 C.3     1  UNL1        0.1606
@<TRIPOS>BOND
     1    32    33    1
     2    33    26    1
     3    26    27   am
     4    27    28    2
     5    27    29   am
     6    29    20    1
     7    20    21   ar
     8    21    22   ar
     9    22    23   ar
    10    23     1    1
    11     1     2   ar
    12     2     3   ar
    13     3     4   ar
    14     4     5   ar
    15     5    13    1
    16    13    14    1
    17    14    15    1
    18    15    16    1
    19    16    17    1
    20    17    18    1
    21    18    19    1
    22     5     6   ar
    23     4     7    1
    24     7     8    1
    25     8     9    1
    26    10     9    1
    27    10    11    1
    28    10    12    1
    29    12    34    1
    30    34    35    1
    31    35    36    1
    32    36    37    1
    33    23    24   ar
    34    24    25   ar
    35    25    20   ar
    36     6     1   ar
    37    12     7    1
    38    37    34    1
    39    11     3    1
    40    18    13    1
    41    26    30    1
    42    29    31    1
@<TRIPOS>MOLECULE
*****
 37 42 0 0 0
SMALL
GASTEIGER

@<TRIPOS>ATOM
      1 C          58.7833   94.7157   -2.3038 C.ar    1  UNL1        0.1632
      2 N          59.4166   94.6853   -3.6632 N.ar    1  UNL1       -0.2310
      3 C          60.8831   94.4014   -3.8013 C.ar    1  UNL1        0.0619
      4 C          61.7162   94.1480   -2.5800 C.ar    1  UNL1        0.0375
      5 C          61.0829   94.1784   -1.2205 C.ar    1  UNL1        0.1318
      6 N          59.6164   94.4623   -1.0825 N.ar    1  UNL1       -0.2122
      7 C          63.1826   93.8642   -2.7181 C.3     1  UNL1        0.0841
      8 C          64.5416   93.6340   -3.3098 C.3     1  UNL1        0.0220
      9 C          64.4261   93.7628   -4.7998 C.3     1  UNL1        0.0181
     10 C          62.9959   94.0725   -5.1289 C.3     1  UNL1        0.0638
     11 C          61.5163   94.3710   -5.1607 C.3     1  UNL1        0.0616
     12 N          62.2273   94.1352   -3.8423 N.3     1  UNL1       -0.2681
     13 N          61.9160   93.9250    0.0008 N.pl3   1  UNL1       -0.2900
     14 C          62.8597   94.9800    0.4971 C.3     1  UNL1        0.1242
     15 C          63.6928   94.7266    1.7184 C.3     1  UNL1        0.1636
     16 O          63.5822   93.4181    2.4435 O.3     1  UNL1       -0.3502
     17 C          62.6385   92.3630    1.9472 C.3     1  UNL1        0.1618
     18 C          61.8054   92.6165    0.7258 C.3     1  UNL1        0.1038
     19 C          60.8618   91.5614    0.2295 C.3     1  UNL1        0.0241
     20 C          54.3840   95.5672   -1.8897 C.ar    1  UNL1        0.0516
     21 C          54.8750   94.1499   -1.9110 C.ar    1  UNL1        0.0148
     22 C          56.3414   93.8661   -2.0490 C.ar    1  UNL1        0.0043
     23 C          57.3169   94.9996   -2.1658 C.ar    1  UNL1        0.0359
     24 C          56.8261   96.4168   -2.1444 C.ar    1  UNL1        0.0043
     25 C          55.3596   96.7006   -2.0064 C.ar    1  UNL1        0.0148
     26 N          50.6397   96.4940   -2.8228 N.am    1  UNL1       -0.2887
     27 C          52.1061   96.2102   -2.9609 C.2     1  UNL1        0.3045
     28 O          52.7610   96.2857   -4.3083 O.2     1  UNL1       -0.2525
     29 N          52.9176   95.8509   -1.7516 N.am    1  UNL1       -0.2683
     30 H          50.2099   96.4444   -1.9385 H       1  UNL1        0.1510
     31 H          52.4877   95.8014   -0.8673 H       1  UNL1        0.1564
     32 C          49.8044   95.9362   -5.2189 C.3     1  UNL1        0.0230
     33 C          49.8282   96.8532   -4.0321 C.3     1  UNL1        0.0910
     34 C          60.7609   94.4190   -3.7042 C.3     1  UNL1        0.1174
     35 C          59.5183   93.5803   -3.6529 C.3     1  UNL1        0.1606
     36 O          58.6870   94.8205   -3.5089 O.3     1  UNL1       -0.3507
     37 C          59.9296   95.6593   -3.5602 C.3     1  UNL1        0.1606
@<TRIPOS>BOND
     1    32    33    1
     2    33    26    1
     3    26    27   am
     4    27    28    2
     5    27    29   am
     6    29    20    1
     7    20    21   ar
     8    21    22   ar
     9    22    23   ar
    10    23     1    1
    11     1     2   ar
    12     2     3   ar
    13     3     4   ar
    14     4     5   ar
    15     5    13    1
    16    13    14    1
    17    14    15    1
    18    15    16    1
    19    16    17    1
    20    17    18    1
    21    18    19    1
    22     5     6   ar
    23     4     7    1
    24     7     8    1
    25     8     9    1
    26    10     9    1
    27    10    11    1
    28    10    12    1
    29    12    34    1
    30    34    35    1
    31    35    36    1
    32    36    37    1
    33    23    24   ar
    34    24    25   ar
    35    25    20   ar
    36     6     1   ar
    37    12     7    1
    38    37    34    1
    39    11     3    1
    40    18    13    1
    41    26    30    1
    42    29    31    1
