@<TRIPOS>MOLECULE
*****
 38 42 0 0 0
SMALL
GASTEIGER

@<TRIPOS>ATOM
      1 C          63.5599   88.1458   15.5050 C.3     1  UNL1        0.2246
      2 C          63.7113   86.6809   15.2200 C.2     1  UNL1        0.0436
      3 C          63.4748   85.6767   16.3089 C.2     1  UNL1        0.0288
      4 C          63.0870   86.1373   17.6828 C.2     1  UNL1        0.0896
      5 N          62.9357   87.6022   17.9678 N.am    1  UNL1       -0.1770
      6 C          63.1721   88.6064   16.8788 C.2     1  UNL1        0.2627
      7 O          63.0208   90.0713   17.1638 O.2     1  UNL1       -0.2719
      8 C          62.4112   90.1188   10.0394 C.3     1  UNL1        0.0312
      9 C          63.3881   90.8420   10.9186 C.2     1  UNL1        0.0126
     10 C          64.0812   92.0733   10.4152 C.2     1  UNL1        0.0036
     11 C          65.0580   92.7964   11.2942 C.2     1  UNL1        0.0847
     12 C          65.3417   92.2883   12.6768 C.2     1  UNL1        0.0541
     13 C          64.6486   91.0570   13.1802 C.2     1  UNL1        0.2236
     14 N          64.7256   90.3254   14.4874 N.2     1  UNL1       -0.0378
     15 C          63.7964   89.1501   14.4162 C.2     1  UNL1        0.3605
     16 N          63.1450   89.1553   13.0650 N.2     1  UNL1       -0.0547
     17 C          63.6717   90.3338   12.3011 C.3     1  UNL1        0.2975
     18 C          65.7512   94.0278   10.7908 C.2     1  UNL1        0.3156
     19 N          66.4860   94.1561    9.4894 N.2     1  UNL1       -0.0701
     20 C          67.0202   95.5545    9.3947 C.3     1  UNL1        0.2174
     21 C          67.5602   95.0906    8.0744 C.3     1  UNL1        0.0576
     22 C          67.6673   96.8560    9.0239 C.3     1  UNL1        0.0576
     23 C          66.6155   96.2905   10.6375 C.3     1  UNL1        0.2483
     24 N          65.8312   95.3469   11.5003 N.pl3   1  UNL1       -0.2155
     25 H          65.4380   95.5566   12.3782 H       1  UNL1        0.2924
     26 N          64.0991   86.2203   13.8462 N.pl3   1  UNL1       -0.3329
     27 H          64.3232   86.8801   13.1508 H       1  UNL1        0.1466
     28 C          64.1454   84.7543   13.5319 C.3     1  UNL1        0.1211
     29 C          63.0819   84.1376   12.6725 C.3     1  UNL1        0.1522
     30 O          62.3836   82.8890   13.1235 O.3     1  UNL1       -0.3783
     31 H          62.7359   82.6146   13.9846 H       1  UNL1        0.2109
     32 C          62.7168   84.7694   11.3620 C.ar    1  UNL1        0.0067
     33 C          63.4604   84.3931   10.1148 C.ar    1  UNL1       -0.0018
     34 C          63.0953   85.0249    8.8043 C.ar    1  UNL1        0.0006
     35 C          61.9865   86.0332    8.7409 C.ar    1  UNL1        0.0114
     36 C          61.2429   86.4095    9.9880 C.ar    1  UNL1        0.0574
     37 CL         60.1341   87.4178    9.9246 Cl      1  UNL1       -0.0823
     38 C          61.6080   85.7777   11.2985 C.ar    1  UNL1        0.0095
@<TRIPOS>BOND
     1     8     9    1
     2     9    10    2
     3    10    11    1
     4    11    18    1
     5    18    19    2
     6    19    20    1
     7    20    21    1
     8    20    22    1
     9    20    23    1
    10    23    24    1
    11    11    12    2
    12    12    13    1
    13    13    14    2
    14    14    15    1
    15    15     1    1
    16     1     2    1
    17     2    26    1
    18    26    28    1
    19    28    29    1
    20    29    30    1
    21    29    32    1
    22    32    33   ar
    23    33    34   ar
    24    34    35   ar
    25    35    36   ar
    26    36    37    1
    27    36    38   ar
    28     2     3    2
    29     3     4    1
    30     4     5    2
    31     5     6    1
    32     6     7    2
    33    15    16    2
    34    16    17    1
    35    17     9    1
    36    24    18    1
    37    17    13    1
    38     6     1    1
    39    38    32   ar
    40    24    25    1
    41    26    27    1
    42    30    31    1
@<TRIPOS>MOLECULE
*****
 38 42 0 0 0
SMALL
GASTEIGER

@<TRIPOS>ATOM
      1 C          63.5402   88.2559   15.5547 C.3     1  UNL1        0.2246
      2 C          63.7140   86.7852   15.3166 C.2     1  UNL1        0.0436
      3 C          63.4883   85.8125   16.4360 C.2     1  UNL1        0.0288
      4 C          63.0887   86.3104   17.7933 C.2     1  UNL1        0.0896
      5 N          62.9149   87.7812   18.0314 N.am    1  UNL1       -0.1770
      6 C          63.1406   88.7539   16.9120 C.2     1  UNL1        0.2627
      7 O          62.9668   90.2246   17.1501 O.2     1  UNL1       -0.2719
      8 C          62.3443   90.0678   10.0437 C.3     1  UNL1        0.0312
      9 C          63.3265   90.8180   10.8937 C.2     1  UNL1        0.0126
     10 C          64.0131   92.0354   10.3494 C.2     1  UNL1        0.0036
     11 C          64.9953   92.7855   11.1994 C.2     1  UNL1        0.0847
     12 C          65.2910   92.3182   12.5938 C.2     1  UNL1        0.0541
     13 C          64.6044   91.1007   13.1381 C.2     1  UNL1        0.2236
     14 N          64.6933   90.4073   14.4652 N.2     1  UNL1       -0.0378
     15 C          63.7659   89.2287   14.4354 C.2     1  UNL1        0.3605
     16 N          63.1040   89.1936   13.0898 N.2     1  UNL1       -0.0547
     17 C          63.6222   90.3506   12.2880 C.3     1  UNL1        0.2975
     18 C          65.6820   94.0031   10.6551 C.2     1  UNL1        0.3156
     19 N          66.6607   94.0293    9.5187 N.2     1  UNL1       -0.0701
     20 C          67.0940   95.4505    9.3129 C.3     1  UNL1        0.2174
     21 C          67.9321   94.8702    8.2126 C.3     1  UNL1        0.0576
     22 C          67.7025   96.7504    8.8770 C.3     1  UNL1        0.0576
     23 C          66.3831   96.3027   10.3220 C.3     1  UNL1        0.2483
     24 N          65.5104   95.4081   11.1516 N.pl3   1  UNL1       -0.2155
     25 H          64.9274   95.6931   11.8919 H       1  UNL1        0.2924
     26 N          64.1136   86.2872   13.9593 N.pl3   1  UNL1       -0.3329
     27 H          64.3740   86.9265   13.2574 H       1  UNL1        0.1466
     28 C          64.1165   84.8151   13.6715 C.3     1  UNL1        0.1211
     29 C          63.1291   84.2388   12.7004 C.3     1  UNL1        0.1522
     30 O          62.3380   85.1477   11.8069 O.3     1  UNL1       -0.3783
     31 H          62.5842   86.0692   11.9835 H       1  UNL1        0.2109
     32 C          62.9328   82.7538   12.6227 C.ar    1  UNL1        0.0067
     33 C          62.6191   81.9727   13.8643 C.ar    1  UNL1       -0.0018
     34 C          62.4228   80.4877   13.7866 C.ar    1  UNL1        0.0006
     35 C          62.5402   79.7836   12.4673 C.ar    1  UNL1        0.0114
     36 C          62.8538   80.5646   11.2258 C.ar    1  UNL1        0.0574
     37 CL         62.9712   79.8605    9.9065 Cl      1  UNL1       -0.0823
     38 C          63.0502   82.0497   11.3034 C.ar    1  UNL1        0.0095
@<TRIPOS>BOND
     1     8     9    1
     2     9    10    2
     3    10    11    1
     4    11    18    1
     5    18    19    2
     6    19    20    1
     7    20    21    1
     8    20    22    1
     9    20    23    1
    10    23    24    1
    11    11    12    2
    12    12    13    1
    13    13    14    2
    14    14    15    1
    15    15     1    1
    16     1     2    1
    17     2    26    1
    18    26    28    1
    19    28    29    1
    20    29    30    1
    21    29    32    1
    22    32    33   ar
    23    33    34   ar
    24    34    35   ar
    25    35    36   ar
    26    36    37    1
    27    36    38   ar
    28     2     3    2
    29     3     4    1
    30     4     5    2
    31     5     6    1
    32     6     7    2
    33    15    16    2
    34    16    17    1
    35    17     9    1
    36    24    18    1
    37    17    13    1
    38     6     1    1
    39    38    32   ar
    40    24    25    1
    41    26    27    1
    42    30    31    1
@<TRIPOS>MOLECULE
*****
 38 42 0 0 0
SMALL
GASTEIGER

@<TRIPOS>ATOM
      1 C          61.3523   88.1955    9.8498 C.3     1  UNL1        0.2246
      2 C          61.5700   86.8257    9.2786 C.2     1  UNL1        0.0436
      3 C          60.6480   86.3000    8.2185 C.2     1  UNL1        0.0288
      4 C          59.5085   87.1440    7.7297 C.2     1  UNL1        0.0896
      5 N          59.2908   88.5138    8.3008 N.am    1  UNL1       -0.1770
      6 C          60.2128   89.0395    9.3609 C.2     1  UNL1        0.2627
      7 O          59.9951   90.4093    9.9321 O.2     1  UNL1       -0.2719
      8 C          63.9862   87.5348   15.1139 C.3     1  UNL1        0.0312
      9 C          64.2387   88.7602   14.2865 C.2     1  UNL1        0.0126
     10 C          65.1633   89.8283   14.7908 C.2     1  UNL1        0.0036
     11 C          65.4158   91.0536   13.9634 C.2     1  UNL1        0.0847
     12 C          64.7437   91.2111   12.6316 C.2     1  UNL1        0.0541
     13 C          63.8191   90.1430   12.1273 C.2     1  UNL1        0.2236
     14 N          63.0204   90.0217   10.8635 N.2     1  UNL1       -0.0378
     15 C          62.2742   88.7213   10.9098 C.2     1  UNL1        0.3605
     16 N          62.6118   88.0389   12.2023 N.2     1  UNL1       -0.0547
     17 C          63.5666   88.9176   12.9547 C.3     1  UNL1        0.2975
     18 C          66.3405   92.1217   14.4678 C.2     1  UNL1        0.3156
     19 N          67.5567   91.9053   15.3187 N.2     1  UNL1       -0.0701
     20 C          68.1791   93.2435   15.5865 C.3     1  UNL1        0.2174
     21 C          69.1847   92.4449   16.3617 C.3     1  UNL1        0.0576
     22 C          69.0118   94.4147   16.0164 C.3     1  UNL1        0.0576
     23 C          67.3477   94.2870   14.9012 C.3     1  UNL1        0.2483
     24 N          66.2113   93.5937   14.2097 N.pl3   1  UNL1       -0.2155
     25 H          65.5047   94.0284   13.6796 H       1  UNL1        0.2924
     26 N          62.7095   85.9816    9.7674 N.pl3   1  UNL1       -0.3329
     27 H          63.4726   86.4024   10.2256 H       1  UNL1        0.1466
     28 C          62.6865   84.4965    9.5581 C.3     1  UNL1        0.1211
     29 C          63.5138   83.6028   10.4338 C.3     1  UNL1        0.1522
     30 O          64.7206   82.9110    9.8725 O.3     1  UNL1       -0.3783
     31 H          64.8232   83.1476    8.9374 H       1  UNL1        0.2109
     32 C          63.1343   83.4008   11.8709 C.ar    1  UNL1        0.0067
     33 C          63.4944   84.4364   12.8944 C.ar    1  UNL1       -0.0018
     34 C          63.1149   84.2345   14.3315 C.ar    1  UNL1        0.0006
     35 C          62.3752   82.9968   14.7450 C.ar    1  UNL1        0.0114
     36 C          62.0150   81.9612   13.7215 C.ar    1  UNL1        0.0574
     37 CL         61.2753   80.7235   14.1350 Cl      1  UNL1       -0.0823
     38 C          62.3946   82.1631   12.2844 C.ar    1  UNL1        0.0095
@<TRIPOS>BOND
     1     8     9    1
     2     9    10    2
     3    10    11    1
     4    11    18    1
     5    18    19    2
     6    19    20    1
     7    20    21    1
     8    20    22    1
     9    20    23    1
    10    23    24    1
    11    11    12    2
    12    12    13    1
    13    13    14    2
    14    14    15    1
    15    15     1    1
    16     1     2    1
    17     2    26    1
    18    26    28    1
    19    28    29    1
    20    29    30    1
    21    29    32    1
    22    32    33   ar
    23    33    34   ar
    24    34    35   ar
    25    35    36   ar
    26    36    37    1
    27    36    38   ar
    28     2     3    2
    29     3     4    1
    30     4     5    2
    31     5     6    1
    32     6     7    2
    33    15    16    2
    34    16    17    1
    35    17     9    1
    36    24    18    1
    37    17    13    1
    38     6     1    1
    39    38    32   ar
    40    24    25    1
    41    26    27    1
    42    30    31    1
@<TRIPOS>MOLECULE
*****
 38 42 0 0 0
SMALL
GASTEIGER

@<TRIPOS>ATOM
      1 C          65.0917   91.5087   13.5371 C.3     1  UNL1        0.2246
      2 C          64.8761   91.9581   12.1224 C.2     1  UNL1        0.0436
      3 C          65.3458   93.3144   11.6865 C.2     1  UNL1        0.0288
      4 C          66.0310   94.2212   12.6653 C.2     1  UNL1        0.0896
      5 N          66.2466   93.7718   14.0800 N.am    1  UNL1       -0.1770
      6 C          65.7769   92.4155   14.5159 C.2     1  UNL1        0.2627
      7 O          65.9926   91.9661   15.9307 O.2     1  UNL1       -0.2719
      8 C          63.0533   87.9359   17.7991 C.3     1  UNL1        0.0312
      9 C          63.2730   87.4134   16.4103 C.2     1  UNL1        0.0126
     10 C          62.9761   85.9777   16.0935 C.2     1  UNL1        0.0036
     11 C          63.1958   85.4552   14.7048 C.2     1  UNL1        0.0847
     12 C          63.7124   86.3685   13.6327 C.2     1  UNL1        0.0541
     13 C          64.0092   87.8042   13.9496 C.2     1  UNL1        0.2236
     14 N          64.5238   88.9326   13.1058 N.2     1  UNL1       -0.0378
     15 C          64.6221   90.1525   13.9731 C.2     1  UNL1        0.3605
     16 N          64.1683   89.7780   15.3529 N.2     1  UNL1       -0.0547
     17 C          63.7895   88.3267   15.3384 C.3     1  UNL1        0.2975
     18 C          62.8989   84.0193   14.3879 C.2     1  UNL1        0.3156
     19 N          63.0412   83.3650   13.0457 N.2     1  UNL1       -0.0701
     20 C          62.6379   81.9271   13.1859 C.3     1  UNL1        0.2174
     21 C          62.9592   81.8578   11.7224 C.3     1  UNL1        0.0576
     22 C          62.3017   80.4747   13.0201 C.3     1  UNL1        0.0576
     23 C          62.2462   81.6927   14.6147 C.3     1  UNL1        0.2483
     24 N          62.4075   82.9858   15.3576 N.pl3   1  UNL1       -0.2155
     25 H          62.2233   83.1307   16.3138 H       1  UNL1        0.2924
     26 N          64.1908   91.0514   11.1435 N.pl3   1  UNL1       -0.3329
     27 H          64.7184   90.4128   10.6114 H       1  UNL1        0.1466
     28 C          62.7018   91.1175   10.9753 C.3     1  UNL1        0.1211
     29 C          61.8478   89.9566   11.3913 C.3     1  UNL1        0.1522
     30 O          61.3659   89.8495   12.8077 O.3     1  UNL1       -0.3783
     31 H          61.6936   90.6060   13.3188 H       1  UNL1        0.2109
     32 C          61.4757   88.9028   10.3908 C.ar    1  UNL1        0.0067
     33 C          60.2712   89.0903    9.5167 C.ar    1  UNL1       -0.0018
     34 C          59.8991   88.0365    8.5162 C.ar    1  UNL1        0.0006
     35 C          60.7315   86.7951    8.3898 C.ar    1  UNL1        0.0114
     36 C          61.9359   86.6075    9.2639 C.ar    1  UNL1        0.0574
     37 CL         62.7683   85.3661    9.1374 Cl      1  UNL1       -0.0823
     38 C          62.3080   87.6613   10.2644 C.ar    1  UNL1        0.0095
@<TRIPOS>BOND
     1     8     9    1
     2     9    10    2
     3    10    11    1
     4    11    18    1
     5    18    19    2
     6    19    20    1
     7    20    21    1
     8    20    22    1
     9    20    23    1
    10    23    24    1
    11    11    12    2
    12    12    13    1
    13    13    14    2
    14    14    15    1
    15    15     1    1
    16     1     2    1
    17     2    26    1
    18    26    28    1
    19    28    29    1
    20    29    30    1
    21    29    32    1
    22    32    33   ar
    23    33    34   ar
    24    34    35   ar
    25    35    36   ar
    26    36    37    1
    27    36    38   ar
    28     2     3    2
    29     3     4    1
    30     4     5    2
    31     5     6    1
    32     6     7    2
    33    15    16    2
    34    16    17    1
    35    17     9    1
    36    24    18    1
    37    17    13    1
    38     6     1    1
    39    38    32   ar
    40    24    25    1
    41    26    27    1
    42    30    31    1
@<TRIPOS>MOLECULE
*****
 38 42 0 0 0
SMALL
GASTEIGER

@<TRIPOS>ATOM
      1 C          63.5788   87.7931   15.3425 C.3     1  UNL1        0.2246
      2 C          63.4534   86.5889   14.4569 C.2     1  UNL1        0.0436
      3 C          62.8712   85.3170   14.9986 C.2     1  UNL1        0.0288
      4 C          62.4144   85.2493   16.4257 C.2     1  UNL1        0.0896
      5 N          62.5399   86.4534   17.3113 N.am    1  UNL1       -0.1770
      6 C          63.1221   87.7253   16.7697 C.2     1  UNL1        0.2627
      7 O          63.2475   88.9295   17.6552 O.2     1  UNL1       -0.2719
      8 C          66.7871   92.7021   16.1750 C.3     1  UNL1        0.0312
      9 C          66.1741   92.4129   14.8368 C.2     1  UNL1        0.0126
     10 C          66.3718   93.3699   13.6988 C.2     1  UNL1        0.0036
     11 C          65.7589   93.0808   12.3607 C.2     1  UNL1        0.0847
     12 C          64.9481   91.8346   12.1605 C.2     1  UNL1        0.0541
     13 C          64.7504   90.8777   13.2986 C.2     1  UNL1        0.2236
     14 N          64.0073   89.5787   13.4001 N.2     1  UNL1       -0.0378
     15 C          64.1610   89.0650   14.8010 C.2     1  UNL1        0.3605
     16 N          64.9992   90.0465   15.5653 N.2     1  UNL1       -0.0547
     17 C          65.3634   91.1669   14.6368 C.3     1  UNL1        0.2975
     18 C          65.9566   94.0378   11.2226 C.2     1  UNL1        0.3156
     19 N          66.8321   93.8149   10.0252 N.2     1  UNL1       -0.0701
     20 C          66.7301   95.0249    9.1447 C.3     1  UNL1        0.2174
     21 C          67.6893   94.2744    8.2692 C.3     1  UNL1        0.0576
     22 C          66.8286   96.0781    8.0812 C.3     1  UNL1        0.0576
     23 C          65.7915   95.9957    9.7979 C.3     1  UNL1        0.2483
     24 N          65.3134   95.3856   11.0821 N.pl3   1  UNL1       -0.2155
     25 H          64.6874   95.7974   11.7206 H       1  UNL1        0.2924
     26 N          63.9102   86.6566   13.0298 N.pl3   1  UNL1       -0.3329
     27 H          64.8051   87.0066   12.8154 H       1  UNL1        0.1466
     28 C          63.0035   86.1912   11.9292 C.3     1  UNL1        0.1211
     29 C          62.1406   87.1783   11.2005 C.3     1  UNL1        0.1522
     30 O          61.9482   88.5588   11.7546 O.3     1  UNL1       -0.3783
     31 H          62.4464   88.6475   12.5821 H       1  UNL1        0.2109
     32 C          61.4702   86.7848    9.9176 C.ar    1  UNL1        0.0067
     33 C          60.0750   87.2521    9.6264 C.ar    1  UNL1       -0.0018
     34 C          59.4046   86.8586    8.3435 C.ar    1  UNL1        0.0006
     35 C          60.1295   85.9978    7.3518 C.ar    1  UNL1        0.0114
     36 C          61.5247   85.5305    7.6430 C.ar    1  UNL1        0.0574
     37 CL         62.2496   84.6697    6.6512 Cl      1  UNL1       -0.0823
     38 C          62.1951   85.9240    8.9259 C.ar    1  UNL1        0.0095
@<TRIPOS>BOND
     1     8     9    1
     2     9    10    2
     3    10    11    1
     4    11    18    1
     5    18    19    2
     6    19    20    1
     7    20    21    1
     8    20    22    1
     9    20    23    1
    10    23    24    1
    11    11    12    2
    12    12    13    1
    13    13    14    2
    14    14    15    1
    15    15     1    1
    16     1     2    1
    17     2    26    1
    18    26    28    1
    19    28    29    1
    20    29    30    1
    21    29    32    1
    22    32    33   ar
    23    33    34   ar
    24    34    35   ar
    25    35    36   ar
    26    36    37    1
    27    36    38   ar
    28     2     3    2
    29     3     4    1
    30     4     5    2
    31     5     6    1
    32     6     7    2
    33    15    16    2
    34    16    17    1
    35    17     9    1
    36    24    18    1
    37    17    13    1
    38     6     1    1
    39    38    32   ar
    40    24    25    1
    41    26    27    1
    42    30    31    1
@<TRIPOS>MOLECULE
*****
 38 42 0 0 0
SMALL
GASTEIGER

@<TRIPOS>ATOM
      1 C          62.8639   84.0678   13.3362 C.3     1  UNL1        0.2246
      2 C          63.0767   83.2808   12.0771 C.2     1  UNL1        0.0436
      3 C          62.6711   81.8379   12.0171 C.2     1  UNL1        0.0288
      4 C          62.0527   81.1820   13.2160 C.2     1  UNL1        0.0896
      5 N          61.8399   81.9691   14.4750 N.am    1  UNL1       -0.1770
      6 C          62.2455   83.4120   14.5351 C.2     1  UNL1        0.2627
      7 O          62.0327   84.1991   15.7941 O.2     1  UNL1       -0.2719
      8 C          62.5471   89.5580   11.1358 C.3     1  UNL1        0.0312
      9 C          63.3959   89.2693   12.3383 C.2     1  UNL1        0.0126
     10 C          64.1716   90.3745   12.9916 C.2     1  UNL1        0.0036
     11 C          65.0204   90.0859   14.1941 C.2     1  UNL1        0.0847
     12 C          65.0937   88.6919   14.7434 C.2     1  UNL1        0.0541
     13 C          64.3180   87.5867   14.0900 C.2     1  UNL1        0.2236
     14 N          64.1946   86.1252   14.4045 N.2     1  UNL1       -0.0378
     15 C          63.2695   85.5107   13.3963 C.2     1  UNL1        0.3605
     16 N          62.8211   86.5924   12.4587 N.2     1  UNL1       -0.0547
     17 C          63.4691   87.8754   12.8875 C.3     1  UNL1        0.2975
     18 C          65.7961   91.1911   14.8474 C.2     1  UNL1        0.3156
     19 N          67.2273   91.5459   14.5723 N.2     1  UNL1       -0.0701
     20 C          67.5925   92.7096   15.4454 C.3     1  UNL1        0.2174
     21 C          68.9329   92.5829   14.7842 C.3     1  UNL1        0.0576
     22 C          68.2379   93.8469   16.1803 C.3     1  UNL1        0.0576
     23 C          66.3870   93.0741   16.2602 C.3     1  UNL1        0.2483
     24 N          65.2768   92.1356   15.8906 N.pl3   1  UNL1       -0.2155
     25 H          64.3669   92.1389   16.2667 H       1  UNL1        0.2924
     26 N          63.6951   83.9365   10.8781 N.pl3   1  UNL1       -0.3329
     27 H          64.5626   84.3947   10.9603 H       1  UNL1        0.1466
     28 C          62.9918   83.8942    9.5539 C.3     1  UNL1        0.1211
     29 C          62.8600   85.1437    8.7345 C.3     1  UNL1        0.1522
     30 O          64.0303   85.6492    7.9440 O.3     1  UNL1       -0.3783
     31 H          64.7873   85.0564    8.0722 H       1  UNL1        0.2109
     32 C          61.5578   85.8878    8.7057 C.ar    1  UNL1        0.0067
     33 C          60.6506   85.7661    7.5175 C.ar    1  UNL1       -0.0018
     34 C          59.3484   86.5101    7.4886 C.ar    1  UNL1        0.0006
     35 C          58.9535   87.3759    8.6481 C.ar    1  UNL1        0.0114
     36 C          59.8608   87.4976    9.8364 C.ar    1  UNL1        0.0574
     37 CL         59.4658   88.3634   10.9959 Cl      1  UNL1       -0.0823
     38 C          61.1629   86.7535    9.8652 C.ar    1  UNL1        0.0095
@<TRIPOS>BOND
     1     8     9    1
     2     9    10    2
     3    10    11    1
     4    11    18    1
     5    18    19    2
     6    19    20    1
     7    20    21    1
     8    20    22    1
     9    20    23    1
    10    23    24    1
    11    11    12    2
    12    12    13    1
    13    13    14    2
    14    14    15    1
    15    15     1    1
    16     1     2    1
    17     2    26    1
    18    26    28    1
    19    28    29    1
    20    29    30    1
    21    29    32    1
    22    32    33   ar
    23    33    34   ar
    24    34    35   ar
    25    35    36   ar
    26    36    37    1
    27    36    38   ar
    28     2     3    2
    29     3     4    1
    30     4     5    2
    31     5     6    1
    32     6     7    2
    33    15    16    2
    34    16    17    1
    35    17     9    1
    36    24    18    1
    37    17    13    1
    38     6     1    1
    39    38    32   ar
    40    24    25    1
    41    26    27    1
    42    30    31    1
@<TRIPOS>MOLECULE
*****
 38 42 0 0 0
SMALL
GASTEIGER

@<TRIPOS>ATOM
      1 C          63.1646   83.4896   13.6026 C.3     1  UNL1        0.2246
      2 C          62.6137   83.1748   12.2434 C.2     1  UNL1        0.0436
      3 C          62.3575   81.7503   11.8495 C.2     1  UNL1        0.0288
      4 C          62.6522   80.6406   12.8147 C.2     1  UNL1        0.0896
      5 N          63.2032   80.9553   14.1738 N.am    1  UNL1       -0.1770
      6 C          63.4593   82.3799   14.5677 C.2     1  UNL1        0.2627
      7 O          64.0103   82.6946   15.9269 O.2     1  UNL1       -0.2719
      8 C          62.7828   87.8250   17.6204 C.3     1  UNL1        0.0312
      9 C          63.4099   88.0824   16.2822 C.2     1  UNL1        0.0126
     10 C          63.9453   89.4446   15.9543 C.2     1  UNL1        0.0036
     11 C          64.5723   89.7020   14.6163 C.2     1  UNL1        0.0847
     12 C          64.6639   88.5970   13.6059 C.2     1  UNL1        0.0541
     13 C          64.1285   87.2347   13.9338 C.2     1  UNL1        0.2236
     14 N          64.0787   85.9595   13.1455 N.2     1  UNL1       -0.0378
     15 C          63.4208   84.9141   13.9965 C.2     1  UNL1        0.3605
     16 N          63.0641   85.5431   15.3107 N.2     1  UNL1       -0.0547
     17 C          63.5015   86.9774   15.2719 C.3     1  UNL1        0.2975
     18 C          65.1077   91.0644   14.2884 C.2     1  UNL1        0.3156
     19 N          65.1325   91.6983   12.9292 N.2     1  UNL1       -0.0701
     20 C          65.7524   93.0576   13.0629 C.3     1  UNL1        0.2174
     21 C          65.5132   93.1391   11.5844 C.3     1  UNL1        0.0576
     22 C          66.3223   94.4340   12.8876 C.3     1  UNL1        0.0576
     23 C          66.1107   93.2638   14.5048 C.3     1  UNL1        0.2483
     24 N          65.7122   92.0319   15.2622 N.pl3   1  UNL1       -0.2155
     25 H          65.8273   91.8844   16.2288 H       1  UNL1        0.2924
     26 N          62.3189   84.2845   11.2781 N.pl3   1  UNL1       -0.3329
     27 H          61.5488   84.8784   11.4312 H       1  UNL1        0.1466
     28 C          63.1974   84.4892   10.0797 C.3     1  UNL1        0.1211
     29 C          62.6888   85.2648    8.9008 C.3     1  UNL1        0.1522
     30 O          62.9599   84.7769    7.5085 O.3     1  UNL1       -0.3783
     31 H          63.4718   83.9539    7.5483 H       1  UNL1        0.2109
     32 C          61.9092   86.5284    9.1141 C.ar    1  UNL1        0.0067
     33 C          60.5174   86.6522    8.5686 C.ar    1  UNL1       -0.0018
     34 C          59.7378   87.9157    8.7820 C.ar    1  UNL1        0.0006
     35 C          60.3499   89.0556    9.5410 C.ar    1  UNL1        0.0114
     36 C          61.7416   88.9318   10.0865 C.ar    1  UNL1        0.0574
     37 CL         62.3537   90.0717   10.8455 Cl      1  UNL1       -0.0823
     38 C          62.5213   87.6683    9.8731 C.ar    1  UNL1        0.0095
@<TRIPOS>BOND
     1     8     9    1
     2     9    10    2
     3    10    11    1
     4    11    18    1
     5    18    19    2
     6    19    20    1
     7    20    21    1
     8    20    22    1
     9    20    23    1
    10    23    24    1
    11    11    12    2
    12    12    13    1
    13    13    14    2
    14    14    15    1
    15    15     1    1
    16     1     2    1
    17     2    26    1
    18    26    28    1
    19    28    29    1
    20    29    30    1
    21    29    32    1
    22    32    33   ar
    23    33    34   ar
    24    34    35   ar
    25    35    36   ar
    26    36    37    1
    27    36    38   ar
    28     2     3    2
    29     3     4    1
    30     4     5    2
    31     5     6    1
    32     6     7    2
    33    15    16    2
    34    16    17    1
    35    17     9    1
    36    24    18    1
    37    17    13    1
    38     6     1    1
    39    38    32   ar
    40    24    25    1
    41    26    27    1
    42    30    31    1
