@<TRIPOS>MOLECULE
*****
 59 62 0 0 0
SMALL
GASTEIGER

@<TRIPOS>ATOM
      1 C          62.4639   83.1825   11.2895 C.3     1  UNL1        0.2086
      2 O          62.2574   84.1045   10.1244 O.3     1  UNL1       -0.4484
      3 C          62.1530   85.4484    9.4665 C.2     1  UNL1        0.3200
      4 O          61.8772   85.0982    8.0342 O.2     1  UNL1       -0.2500
      5 C          62.1712   86.9481    9.4458 C.3     1  UNL1        0.1391
      6 C          61.8958   87.0845    7.9776 C.3     1  UNL1        0.0155
      7 C          62.3086   88.3067   10.0668 C.3     1  UNL1        0.1832
      8 C          62.5378   89.2549   11.2062 C.3     1  UNL1        0.0704
      9 C          62.4334   90.5988   10.5482 C.3     1  UNL1        0.0063
     10 C          62.8136   89.6050   12.6385 C.3     1  UNL1        0.1459
     11 C          63.0812   89.2878   14.0799 C.3     1  UNL1        0.1182
     12 C          63.0577   90.7682   13.8399 C.3     1  UNL1        0.0321
     13 C          63.2877   88.3658   15.2449 C.3     1  UNL1        0.0353
     14 C          63.3922   87.0218   15.9030 C.3     1  UNL1        0.0419
     15 C          63.6679   87.3720   17.3352 C.3     1  UNL1        0.0061
     16 C          63.3739   85.5221   15.9236 C.2     1  UNL1        0.0778
     17 N          63.6416   85.2048   17.3650 N.2     1  UNL1       -0.0916
     18 C          63.2366   84.1636   15.3026 C.3     1  UNL1        0.0832
     19 C          63.4431   83.2417   16.4677 C.3     1  UNL1        0.0099
     20 C          63.0073   83.2153   14.1632 C.3     1  UNL1        0.2172
     21 O          63.1346   81.9365   14.9368 O.3     1  UNL1       -0.4177
     22 C          62.9375   80.7961   13.9826 C.2     1  UNL1        0.5118
     23 O          62.9817   79.3377   14.3305 O.2     1  UNL1       -0.2028
     24 O          62.6884   81.3700   12.6193 O.3     1  UNL1       -0.4181
     25 C          62.7315   82.8652   12.7309 C.3     1  UNL1        0.2124
     26 C          62.4954   81.9701   11.5507 C.3     1  UNL1        0.0514
     27 C          63.5513   81.0444   10.2916 C.3     1  UNL1        0.0040
     28 C          62.3266   81.8240   10.6685 C.3     1  UNL1        0.0474
     29 O          63.3317   90.0522   15.3460 O.3     1  UNL1       -0.3535
     30 C          63.0522   89.9972   16.0904 C.3     1  UNL1        0.1740
     31 O          63.8445   86.3156   18.3523 O.2     1  UNL1       -0.3737
     32 C          62.6716   87.1221   18.8255 C.3     1  UNL1        0.2885
     33 O          62.1021   89.2286    8.9017 O.3     1  UNL1       -0.4378
     34 C          60.7144   89.6377    8.5057 C.2     1  UNL1        0.4015
     35 O          59.5749   89.9701    9.4228 O.2     1  UNL1       -0.2264
     36 N          60.3505   89.7488    7.0548 N.am    1  UNL1       -0.2707
     37 H          61.0224   89.5532    6.3623 H       1  UNL1        0.1527
     38 C          58.9627   90.1579    6.6588 C.3     1  UNL1        0.0930
     39 C          58.6955   90.6567    5.2696 C.3     1  UNL1        0.0261
     40 C          59.1513   92.0271    4.8642 C.3     1  UNL1        0.0297
     41 C          60.2967   92.1843    3.9083 C.ar    1  UNL1       -0.0030
     42 C          61.5681   91.4197    4.1292 C.ar    1  UNL1       -0.0011
     43 C          62.7134   91.5768    3.1734 C.ar    1  UNL1        0.0204
     44 C          62.5873   92.4987    1.9969 C.ar    1  UNL1        0.0989
     45 N          61.3158   93.2633    1.7761 N.ar    1  UNL1       -0.2426
     46 C          60.1705   93.1062    2.7318 C.ar    1  UNL1        0.0946
     47 O          62.8318   91.1048   12.6179 O.3     1  UNL1       -0.3287
     48 C          64.1183   91.8423   12.8440 C.3     1  UNL1        0.2643
     49 O          64.6945   91.9394   14.2254 O.3     1  UNL1       -0.3311
     50 C          65.9809   92.6769   14.4515 C.3     1  UNL1        0.1194
     51 C          66.5570   92.7739   15.8330 C.3     1  UNL1        0.0322
     52 C          66.6912   93.3174   13.2960 C.3     1  UNL1        0.0482
     53 C          66.1151   93.2204   11.9144 C.3     1  UNL1        0.0921
     54 C          64.8286   92.4829   11.6884 C.3     1  UNL1        0.1815
     55 O          64.2525   92.3858   10.3069 O.3     1  UNL1       -0.3783
     56 H          63.4254   91.8799   10.3363 H       1  UNL1        0.2106
     57 N          66.8253   93.8609   10.7589 N.3     1  UNL1       -0.2692
     58 C          66.7265   95.3424   10.5458 C.3     1  UNL1        0.0897
     59 C          67.6344   93.0200    9.8164 C.3     1  UNL1        0.0897
@<TRIPOS>BOND
     1    27    28    1
     2     1    28    1
     3     1     2    1
     4     2     3    1
     5     3     4    2
     6     3     5    1
     7     5     6    1
     8     5     7    1
     9     7    33    1
    10    33    34    1
    11    34    35    2
    12    34    36   am
    13    36    38    1
    14    38    39    1
    15    39    40    1
    16    40    41    1
    17    41    42   ar
    18    42    43   ar
    19    43    44   ar
    20    44    45   ar
    21    45    46   ar
    22     7     8    1
    23     8     9    1
    24     8    10    1
    25    10    47    1
    26    48    47    1
    27    48    49    1
    28    49    50    1
    29    50    51    1
    30    50    52    1
    31    52    53    1
    32    53    57    1
    33    57    58    1
    34    57    59    1
    35    53    54    1
    36    54    55    1
    37    10    11    1
    38    11    12    1
    39    11    29    1
    40    29    30    1
    41    11    13    1
    42    13    14    1
    43    14    15    1
    44    14    16    1
    45    16    17    2
    46    17    31    1
    47    31    32    1
    48    16    18    1
    49    18    19    1
    50    18    20    1
    51    20    21    1
    52    21    22    1
    53    22    23    2
    54    22    24    1
    55    24    25    1
    56    25    26    1
    57    25     1    1
    58    46    41   ar
    59    54    48    1
    60    25    20    1
    61    36    37    1
    62    55    56    1
