@<TRIPOS>MOLECULE
*****
 34 37 0 0 0
SMALL
GASTEIGER

@<TRIPOS>ATOM
      1 C          63.6870   87.0901   13.6971 C.ar    1  UNL1        0.0813
      2 C          64.4072   88.1618   14.4604 C.ar    1  UNL1        0.0365
      3 C          64.3896   89.5771   13.9638 C.ar    1  UNL1        0.0857
      4 C          63.6518   89.9206   12.7037 C.ar    1  UNL1        0.0989
      5 N          62.9317   88.8489   11.9404 N.ar    1  UNL1       -0.2906
      6 C          62.1257   88.8864   10.6759 C.ar    1  UNL1        0.0567
      7 C          61.8489   90.1025    9.8425 C.3     1  UNL1        0.0517
      8 C          61.6451   87.4943   10.3910 C.ar    1  UNL1        0.0730
      9 C          60.8034   87.0739    9.2227 C.3     1  UNL1        0.0534
     10 N          62.1541   86.5965   11.4794 N.ar    1  UNL1       -0.2299
     11 C          62.9492   87.4337   12.4370 C.ar    1  UNL1        0.1604
     12 N          65.1098   90.6488   14.7272 N.ar    1  UNL1       -0.2715
     13 C          66.4793   91.0844   14.2973 C.ar    1  UNL1        0.0874
     14 C          67.1995   92.1561   15.0607 C.ar    1  UNL1        0.0709
     15 C          66.5502   92.7923   16.2539 C.ar    1  UNL1        0.0109
     16 C          65.1807   92.3568   16.6837 C.ar    1  UNL1        0.0613
     17 C          64.4605   91.2850   15.9203 C.ar    1  UNL1        0.2649
     18 O          63.0910   90.8495   16.3501 O.2     1  UNL1       -0.2666
     19 C          68.5690   92.5916   14.6308 C.2     1  UNL1        0.2442
     20 N          69.2549   91.8951   13.4932 N.am    1  UNL1       -0.3253
     21 O          69.2526   93.7237   15.3388 O.2     1  UNL1       -0.2703
     22 H          68.8062   91.1521   13.0285 H       1  UNL1        0.1453
     23 H          70.1538   92.1810   13.2111 H       1  UNL1        0.1453
     24 N          63.7045   85.6748   14.1937 N.pl3   1  UNL1       -0.3267
     25 H          63.3394   85.4604   15.0825 H       1  UNL1        0.1472
     26 C          64.2784   84.5861   13.3361 C.3     1  UNL1        0.1137
     27 C          64.4628   83.0131   10.7883 C.3     1  UNL1        0.0307
     28 C          63.6551   82.4872   11.9376 C.ar    1  UNL1       -0.0245
     29 C          62.9396   81.1747   11.8131 C.ar    1  UNL1       -0.0045
     30 C          62.1319   80.6488   12.9625 C.ar    1  UNL1       -0.0007
     31 C          62.0397   81.4353   14.2364 C.ar    1  UNL1       -0.0045
     32 C          62.7552   82.7477   14.3610 C.ar    1  UNL1       -0.0245
     33 C          62.6631   83.5343   15.6349 C.3     1  UNL1        0.0307
     34 C          63.5629   83.2737   13.2116 C.ar    1  UNL1       -0.0105
@<TRIPOS>BOND
     1    27    28    1
     2    28    29   ar
     3    29    30   ar
     4    30    31   ar
     5    31    32   ar
     6    32    33    1
     7    32    34   ar
     8    34    26    1
     9    26    24    1
    10    24     1    1
    11     1     2   ar
    12     2     3   ar
    13     3    12    1
    14    12    13   ar
    15    13    14   ar
    16    14    19    1
    17    19    20   am
    18    19    21    2
    19    14    15   ar
    20    15    16   ar
    21    16    17   ar
    22    17    18    2
    23     3     4   ar
    24     4     5   ar
    25     5     6   ar
    26     6     7    1
    27     6     8   ar
    28     8     9    1
    29     8    10   ar
    30    10    11   ar
    31    34    28   ar
    32    11     1   ar
    33    17    12   ar
    34    11     5   ar
    35    24    25    1
    36    20    22    1
    37    20    23    1
@<TRIPOS>MOLECULE
*****
 34 37 0 0 0
SMALL
GASTEIGER

@<TRIPOS>ATOM
      1 C          62.3232   89.0006   10.9192 C.ar    1  UNL1        0.0813
      2 C          62.8237   87.8441   11.7328 C.ar    1  UNL1        0.0365
      3 C          62.3758   86.4497   11.4089 C.ar    1  UNL1        0.0857
      4 C          61.4274   86.2118   10.2713 C.ar    1  UNL1        0.0989
      5 N          60.9270   87.3683    9.4577 N.ar    1  UNL1       -0.2906
      6 C          59.9930   87.4418    8.2862 C.ar    1  UNL1        0.0567
      7 C          59.3086   86.2795    7.6301 C.3     1  UNL1        0.0517
      8 C          59.8637   88.8817    7.8862 C.ar    1  UNL1        0.0730
      9 C          59.0272   89.4121    6.7596 C.3     1  UNL1        0.0534
     10 N          60.7177   89.6981    8.8104 N.ar    1  UNL1       -0.2299
     11 C          61.3748   88.7627    9.7817 C.ar    1  UNL1        0.1604
     12 N          62.8762   85.2931   12.2225 N.ar    1  UNL1       -0.2715
     13 C          62.6411   83.8881   11.7526 C.ar    1  UNL1        0.0874
     14 C          63.1415   82.7316   12.5662 C.ar    1  UNL1        0.0709
     15 C          63.8771   82.9799   13.8497 C.ar    1  UNL1        0.0109
     16 C          64.1123   84.3849   14.3195 C.ar    1  UNL1        0.0613
     17 C          63.6118   85.5415   13.5059 C.ar    1  UNL1        0.2649
     18 O          63.8470   86.9464   13.9758 O.2     1  UNL1       -0.2666
     19 C          62.9063   81.3266   12.0963 C.2     1  UNL1        0.2442
     20 N          62.4704   80.2729   13.0708 N.am    1  UNL1       -0.3253
     21 O          63.1072   80.9753   10.6519 O.2     1  UNL1       -0.2703
     22 H          62.3386   80.5035   14.0188 H       1  UNL1        0.1453
     23 H          62.3160   79.3508   12.7624 H       1  UNL1        0.1453
     24 N          62.7711   90.3951   11.2432 N.pl3   1  UNL1       -0.3267
     25 H          62.8798   91.0571   10.5226 H       1  UNL1        0.1472
     26 C          63.0533   90.7809   12.6650 C.3     1  UNL1        0.1137
     27 C          64.1260   90.1333   15.3908 C.3     1  UNL1        0.0307
     28 C          64.9622   90.9159   14.4221 C.ar    1  UNL1       -0.0245
     29 C          66.3349   91.3748   14.8164 C.ar    1  UNL1       -0.0045
     30 C          67.1711   92.1574   13.8478 C.ar    1  UNL1       -0.0007
     31 C          66.6347   92.4812   12.4849 C.ar    1  UNL1       -0.0045
     32 C          65.2622   92.0223   12.0906 C.ar    1  UNL1       -0.0245
     33 C          64.7258   92.3461   10.7277 C.3     1  UNL1        0.0307
     34 C          64.4259   91.2397   13.0592 C.ar    1  UNL1       -0.0105
@<TRIPOS>BOND
     1    27    28    1
     2    28    29   ar
     3    29    30   ar
     4    30    31   ar
     5    31    32   ar
     6    32    33    1
     7    32    34   ar
     8    34    26    1
     9    26    24    1
    10    24     1    1
    11     1     2   ar
    12     2     3   ar
    13     3    12    1
    14    12    13   ar
    15    13    14   ar
    16    14    19    1
    17    19    20   am
    18    19    21    2
    19    14    15   ar
    20    15    16   ar
    21    16    17   ar
    22    17    18    2
    23     3     4   ar
    24     4     5   ar
    25     5     6   ar
    26     6     7    1
    27     6     8   ar
    28     8     9    1
    29     8    10   ar
    30    10    11   ar
    31    34    28   ar
    32    11     1   ar
    33    17    12   ar
    34    11     5   ar
    35    24    25    1
    36    20    22    1
    37    20    23    1
@<TRIPOS>MOLECULE
*****
 34 37 0 0 0
SMALL
GASTEIGER

@<TRIPOS>ATOM
      1 C          62.3181   88.9932   10.9156 C.ar    1  UNL1        0.0813
      2 C          62.8188   87.8372   11.7297 C.ar    1  UNL1        0.0365
      3 C          62.3727   86.4424   11.4052 C.ar    1  UNL1        0.0857
      4 C          61.4259   86.2036   10.2665 C.ar    1  UNL1        0.0989
      5 N          60.9252   87.3597    9.4524 N.ar    1  UNL1       -0.2906
      6 C          59.9926   87.4324    8.2799 C.ar    1  UNL1        0.0567
      7 C          59.3100   86.2694    7.6228 C.3     1  UNL1        0.0517
      8 C          59.8623   88.8721    7.8798 C.ar    1  UNL1        0.0730
      9 C          59.0265   89.4018    6.7523 C.3     1  UNL1        0.0534
     10 N          60.7144   89.6893    8.8050 N.ar    1  UNL1       -0.2299
     11 C          61.3713   88.7545    9.7770 C.ar    1  UNL1        0.1604
     12 N          62.8734   85.2862   12.2193 N.ar    1  UNL1       -0.2715
     13 C          62.6414   83.8811   11.7483 C.ar    1  UNL1        0.0874
     14 C          63.1420   82.7249   12.5623 C.ar    1  UNL1        0.0709
     15 C          63.8747   82.9739   13.8474 C.ar    1  UNL1        0.0109
     16 C          64.1067   84.3790   14.3184 C.ar    1  UNL1        0.0613
     17 C          63.6060   85.5352   13.5043 C.ar    1  UNL1        0.2649
     18 O          63.8380   86.9403   13.9752 O.2     1  UNL1       -0.2666
     19 C          62.9101   81.3198   12.0914 C.2     1  UNL1        0.2442
     20 N          62.4879   80.2618   13.0672 N.am    1  UNL1       -0.3253
     21 O          63.1003   80.9727   10.6445 O.2     1  UNL1       -0.2703
     22 H          62.3630   80.4896   14.0168 H       1  UNL1        0.1453
     23 H          62.3356   79.3396   12.7581 H       1  UNL1        0.1453
     24 N          62.7643   90.3882   11.2402 N.pl3   1  UNL1       -0.3267
     25 H          62.8753   91.0497   10.5196 H       1  UNL1        0.1472
     26 C          63.0412   90.7751   12.6627 C.3     1  UNL1        0.1137
     27 C          64.7150   92.3426   10.7284 C.3     1  UNL1        0.0307
     28 C          65.2479   92.0227   12.0935 C.ar    1  UNL1       -0.0245
     29 C          66.6178   92.4866   12.4916 C.ar    1  UNL1       -0.0045
     30 C          67.1507   92.1667   13.8567 C.ar    1  UNL1       -0.0007
     31 C          66.3138   91.3830   14.8239 C.ar    1  UNL1       -0.0045
     32 C          64.9440   90.9191   14.4259 C.ar    1  UNL1       -0.0245
     33 C          64.1071   90.1354   15.3931 C.3     1  UNL1        0.0307
     34 C          64.4110   91.2390   13.0607 C.ar    1  UNL1       -0.0105
@<TRIPOS>BOND
     1    27    28    1
     2    28    29   ar
     3    29    30   ar
     4    30    31   ar
     5    31    32   ar
     6    32    33    1
     7    32    34   ar
     8    34    26    1
     9    26    24    1
    10    24     1    1
    11     1     2   ar
    12     2     3   ar
    13     3    12    1
    14    12    13   ar
    15    13    14   ar
    16    14    19    1
    17    19    20   am
    18    19    21    2
    19    14    15   ar
    20    15    16   ar
    21    16    17   ar
    22    17    18    2
    23     3     4   ar
    24     4     5   ar
    25     5     6   ar
    26     6     7    1
    27     6     8   ar
    28     8     9    1
    29     8    10   ar
    30    10    11   ar
    31    34    28   ar
    32    11     1   ar
    33    17    12   ar
    34    11     5   ar
    35    24    25    1
    36    20    22    1
    37    20    23    1
@<TRIPOS>MOLECULE
*****
 34 37 0 0 0
SMALL
GASTEIGER

@<TRIPOS>ATOM
      1 C          63.0133   88.6822   12.2205 C.ar    1  UNL1        0.0813
      2 C          63.6839   89.8015   12.9603 C.ar    1  UNL1        0.0365
      3 C          64.4939   89.5094   14.1885 C.ar    1  UNL1        0.0857
      4 C          64.6334   88.0980   14.6768 C.ar    1  UNL1        0.0989
      5 N          63.9629   86.9786   13.9369 N.ar    1  UNL1       -0.2906
      6 C          63.9215   85.4988   14.1783 C.ar    1  UNL1        0.0567
      7 C          64.5972   84.7695   15.3015 C.3     1  UNL1        0.0517
      8 C          63.0859   84.8763   13.0993 C.ar    1  UNL1        0.0730
      9 C          62.7793   83.4151   12.9540 C.3     1  UNL1        0.0534
     10 N          62.6108   85.9714   12.1910 N.ar    1  UNL1       -0.2299
     11 C          63.1528   87.2708   12.7088 C.ar    1  UNL1        0.1604
     12 N          65.1645   90.6287   14.9285 N.ar    1  UNL1       -0.2715
     13 C          66.5337   91.0843   14.5187 C.ar    1  UNL1        0.0874
     14 C          67.2043   92.2036   15.2586 C.ar    1  UNL1        0.0709
     15 C          66.5058   92.8673   16.4083 C.ar    1  UNL1        0.0109
     16 C          65.1366   92.4117   16.8180 C.ar    1  UNL1        0.0613
     17 C          64.4660   91.2924   16.0780 C.ar    1  UNL1        0.2649
     18 O          63.0969   90.8367   16.4878 O.2     1  UNL1       -0.2666
     19 C          68.5734   92.6592   14.8489 C.2     1  UNL1        0.2442
     20 N          69.2673   92.0031   13.6922 N.am    1  UNL1       -0.3253
     21 O          69.2487   93.7710   15.5959 O.2     1  UNL1       -0.2703
     22 H          68.8241   91.2735   13.2019 H       1  UNL1        0.1453
     23 H          70.1659   92.3022   13.4233 H       1  UNL1        0.1453
     24 N          62.2032   88.9743   10.9922 N.pl3   1  UNL1       -0.3267
     25 H          61.4778   89.6389   11.0276 H       1  UNL1        0.1472
     26 C          62.4985   88.2537    9.7102 C.3     1  UNL1        0.1137
     27 C          62.8197   85.4724    8.6326 C.3     1  UNL1        0.0307
     28 C          61.5447   86.2261    8.3952 C.ar    1  UNL1       -0.0245
     29 C          60.4303   85.5892    7.6190 C.ar    1  UNL1       -0.0045
     30 C          59.1553   86.3429    7.3817 C.ar    1  UNL1       -0.0007
     31 C          58.9947   87.7335    7.9205 C.ar    1  UNL1       -0.0045
     32 C          60.1091   88.3705    8.6967 C.ar    1  UNL1       -0.0245
     33 C          59.9485   89.7611    9.2355 C.3     1  UNL1        0.0307
     34 C          61.3841   87.6167    8.9340 C.ar    1  UNL1       -0.0105
@<TRIPOS>BOND
     1    27    28    1
     2    28    29   ar
     3    29    30   ar
     4    30    31   ar
     5    31    32   ar
     6    32    33    1
     7    32    34   ar
     8    34    26    1
     9    26    24    1
    10    24     1    1
    11     1     2   ar
    12     2     3   ar
    13     3    12    1
    14    12    13   ar
    15    13    14   ar
    16    14    19    1
    17    19    20   am
    18    19    21    2
    19    14    15   ar
    20    15    16   ar
    21    16    17   ar
    22    17    18    2
    23     3     4   ar
    24     4     5   ar
    25     5     6   ar
    26     6     7    1
    27     6     8   ar
    28     8     9    1
    29     8    10   ar
    30    10    11   ar
    31    34    28   ar
    32    11     1   ar
    33    17    12   ar
    34    11     5   ar
    35    24    25    1
    36    20    22    1
    37    20    23    1
@<TRIPOS>MOLECULE
*****
 34 37 0 0 0
SMALL
GASTEIGER

@<TRIPOS>ATOM
      1 C          63.4672   86.8081   13.2418 C.ar    1  UNL1        0.0813
      2 C          62.6549   86.3953   12.0503 C.ar    1  UNL1        0.0365
      3 C          62.2335   87.4194   11.0386 C.ar    1  UNL1        0.0857
      4 C          62.6244   88.8563   11.2184 C.ar    1  UNL1        0.0989
      5 N          63.4368   89.2692   12.4099 N.ar    1  UNL1       -0.2906
      6 C          63.9673   90.6013   12.8502 C.ar    1  UNL1        0.0567
      7 C          63.7812   91.9053   12.1327 C.3     1  UNL1        0.0517
      8 C          64.7166   90.4005   14.1341 C.ar    1  UNL1        0.0730
      9 C          65.4114   91.4685   14.9258 C.3     1  UNL1        0.0534
     10 N          64.6492   88.9442   14.4872 N.ar    1  UNL1       -0.2299
     11 C          63.8582   88.2450   13.4215 C.ar    1  UNL1        0.1604
     12 N          61.4211   87.0066    9.8471 N.ar    1  UNL1       -0.2715
     13 C          62.0115   86.0881    8.8186 C.ar    1  UNL1        0.0874
     14 C          61.1991   85.6753    7.6271 C.ar    1  UNL1        0.0709
     15 C          59.7963   86.1810    7.4641 C.ar    1  UNL1        0.0109
     16 C          59.2059   87.0995    8.4926 C.ar    1  UNL1        0.0613
     17 C          60.0183   87.5123    9.6841 C.ar    1  UNL1        0.2649
     18 O          59.4279   88.4307   10.7126 O.2     1  UNL1       -0.2666
     19 C          61.7895   84.7569    6.5986 C.2     1  UNL1        0.2442
     20 N          60.8910   83.9827    5.6803 N.am    1  UNL1       -0.3253
     21 O          63.2786   84.6126    6.4883 O.2     1  UNL1       -0.2703
     22 H          59.9137   84.0774    5.7527 H       1  UNL1        0.1453
     23 H          61.2785   83.3799    5.0053 H       1  UNL1        0.1453
     24 N          63.8887   85.7839   14.2535 N.pl3   1  UNL1       -0.3267
     25 H          63.7684   85.9625   15.2142 H       1  UNL1        0.1472
     26 C          64.4933   84.4877   13.8015 C.3     1  UNL1        0.1137
     27 C          62.5773   83.5643   15.9172 C.3     1  UNL1        0.0307
     28 C          62.6573   82.8360   14.6083 C.ar    1  UNL1       -0.0245
     29 C          61.7793   81.6460   14.3573 C.ar    1  UNL1       -0.0045
     30 C          61.8593   80.9177   13.0484 C.ar    1  UNL1       -0.0007
     31 C          62.8173   81.3794   11.9905 C.ar    1  UNL1       -0.0045
     32 C          63.6953   82.5694   12.2416 C.ar    1  UNL1       -0.0245
     33 C          64.6533   83.0311   11.1837 C.3     1  UNL1        0.0307
     34 C          63.6153   83.2978   13.5505 C.ar    1  UNL1       -0.0105
@<TRIPOS>BOND
     1    27    28    1
     2    28    29   ar
     3    29    30   ar
     4    30    31   ar
     5    31    32   ar
     6    32    33    1
     7    32    34   ar
     8    34    26    1
     9    26    24    1
    10    24     1    1
    11     1     2   ar
    12     2     3   ar
    13     3    12    1
    14    12    13   ar
    15    13    14   ar
    16    14    19    1
    17    19    20   am
    18    19    21    2
    19    14    15   ar
    20    15    16   ar
    21    16    17   ar
    22    17    18    2
    23     3     4   ar
    24     4     5   ar
    25     5     6   ar
    26     6     7    1
    27     6     8   ar
    28     8     9    1
    29     8    10   ar
    30    10    11   ar
    31    34    28   ar
    32    11     1   ar
    33    17    12   ar
    34    11     5   ar
    35    24    25    1
    36    20    22    1
    37    20    23    1
@<TRIPOS>MOLECULE
*****
 34 37 0 0 0
SMALL
GASTEIGER

@<TRIPOS>ATOM
      1 C          62.2537   88.8490   10.6855 C.ar    1  UNL1        0.0813
      2 C          62.8236   87.6387   11.3639 C.ar    1  UNL1        0.0365
      3 C          62.3644   86.2683   10.9629 C.ar    1  UNL1        0.0857
      4 C          61.3352   86.1081    9.8834 C.ar    1  UNL1        0.0989
      5 N          60.7653   87.3185    9.2050 N.ar    1  UNL1       -0.2906
      6 C          59.7453   87.4717    8.1159 C.ar    1  UNL1        0.0567
      7 C          59.0233   86.3556    7.4209 C.3     1  UNL1        0.0517
      8 C          59.5742   88.9369    7.8438 C.ar    1  UNL1        0.0730
      9 C          58.6510   89.5432    6.8289 C.3     1  UNL1        0.0534
     10 N          60.4884   89.6892    8.7648 N.ar    1  UNL1       -0.2299
     11 C          61.2246   88.6889    9.6061 C.ar    1  UNL1        0.1604
     12 N          62.9343   85.0578   11.6413 N.ar    1  UNL1       -0.2715
     13 C          62.9323   84.9666   13.1385 C.ar    1  UNL1        0.0874
     14 C          63.5022   83.7563   13.8169 C.ar    1  UNL1        0.0709
     15 C          64.0740   82.6370   12.9981 C.ar    1  UNL1        0.0109
     16 C          64.0759   82.7282   11.5008 C.ar    1  UNL1        0.0613
     17 C          63.5060   83.9387   10.8224 C.ar    1  UNL1        0.2649
     18 O          63.5079   84.0299    9.3252 O.2     1  UNL1       -0.2666
     19 C          63.5003   83.6651   15.3141 C.2     1  UNL1        0.2442
     20 N          64.6305   82.9821   16.0253 N.am    1  UNL1       -0.3253
     21 O          62.3680   84.2570   16.1001 O.2     1  UNL1       -0.2703
     22 H          65.3737   82.5936   15.5095 H       1  UNL1        0.1453
     23 H          64.6293   82.9222   17.0080 H       1  UNL1        0.1453
     24 N          62.7130   90.2196   11.0865 N.pl3   1  UNL1       -0.3267
     25 H          62.8701   90.9068   10.3993 H       1  UNL1        0.1472
     26 C          62.9329   90.5430   12.5346 C.3     1  UNL1        0.1137
     27 C          63.9988   89.7936   15.2369 C.3     1  UNL1        0.0307
     28 C          64.7922   90.6995   14.3426 C.ar    1  UNL1       -0.0245
     29 C          66.1186   91.2307   14.7994 C.ar    1  UNL1       -0.0045
     30 C          66.9120   92.1365   13.9050 C.ar    1  UNL1       -0.0007
     31 C          66.3790   92.5112   12.5539 C.ar    1  UNL1       -0.0045
     32 C          65.0527   91.9801   12.0971 C.ar    1  UNL1       -0.0245
     33 C          64.5198   92.3548   10.7459 C.3     1  UNL1        0.0307
     34 C          64.2593   91.0742   12.9914 C.ar    1  UNL1       -0.0105
@<TRIPOS>BOND
     1    27    28    1
     2    28    29   ar
     3    29    30   ar
     4    30    31   ar
     5    31    32   ar
     6    32    33    1
     7    32    34   ar
     8    34    26    1
     9    26    24    1
    10    24     1    1
    11     1     2   ar
    12     2     3   ar
    13     3    12    1
    14    12    13   ar
    15    13    14   ar
    16    14    19    1
    17    19    20   am
    18    19    21    2
    19    14    15   ar
    20    15    16   ar
    21    16    17   ar
    22    17    18    2
    23     3     4   ar
    24     4     5   ar
    25     5     6   ar
    26     6     7    1
    27     6     8   ar
    28     8     9    1
    29     8    10   ar
    30    10    11   ar
    31    34    28   ar
    32    11     1   ar
    33    17    12   ar
    34    11     5   ar
    35    24    25    1
    36    20    22    1
    37    20    23    1
@<TRIPOS>MOLECULE
*****
 34 37 0 0 0
SMALL
GASTEIGER

@<TRIPOS>ATOM
      1 C          62.8655   87.5092   11.9860 C.ar    1  UNL1        0.0813
      2 C          63.3454   88.7783   12.6254 C.ar    1  UNL1        0.0365
      3 C          64.0596   88.7305   13.9436 C.ar    1  UNL1        0.0857
      4 C          64.2939   87.4135   14.6223 C.ar    1  UNL1        0.0989
      5 N          63.8139   86.1443   13.9829 N.ar    1  UNL1       -0.2906
      6 C          63.8997   84.7095   14.4118 C.ar    1  UNL1        0.0567
      7 C          64.5351   84.2027   15.6724 C.3     1  UNL1        0.0517
      8 C          63.2385   83.8706   13.3586 C.ar    1  UNL1        0.0730
      9 C          63.0967   82.3774   13.3813 C.3     1  UNL1        0.0534
     10 N          62.7441   84.7869   12.2789 N.ar    1  UNL1       -0.2299
     11 C          63.0998   86.1922   12.6647 C.ar    1  UNL1        0.1604
     12 N          64.5396   89.9996   14.5831 N.ar    1  UNL1       -0.2715
     13 C          65.6873   90.7552   13.9814 C.ar    1  UNL1        0.0874
     14 C          66.1673   92.0243   14.6209 C.ar    1  UNL1        0.0709
     15 C          65.4996   92.5379   15.8620 C.ar    1  UNL1        0.0109
     16 C          64.3519   91.7824   16.4637 C.ar    1  UNL1        0.0613
     17 C          63.8719   90.5132   15.8242 C.ar    1  UNL1        0.2649
     18 O          62.7242   89.7577   16.4259 O.2     1  UNL1       -0.2666
     19 C          67.3149   92.7798   14.0192 C.2     1  UNL1        0.2442
     20 N          68.6394   92.8169   14.7224 N.am    1  UNL1       -0.3253
     21 O          67.1381   93.4983   12.7144 O.2     1  UNL1       -0.2703
     22 H          68.7554   92.3453   15.5787 H       1  UNL1        0.1453
     23 H          69.3926   93.3128   14.3275 H       1  UNL1        0.1453
     24 N          62.1513   87.5570   10.6677 N.pl3   1  UNL1       -0.3267
     25 H          62.2600   88.3370   10.0770 H       1  UNL1        0.1472
     26 C          61.2715   86.4163   10.2496 C.3     1  UNL1        0.1137
     27 C          59.1161   86.9455    8.2312 C.3     1  UNL1        0.0307
     28 C          60.3072   86.1146    7.8561 C.ar    1  UNL1       -0.0245
     29 C          60.4206   85.5483    6.4717 C.ar    1  UNL1       -0.0045
     30 C          61.6118   84.7175    6.0965 C.ar    1  UNL1       -0.0007
     31 C          62.6895   84.4528    7.1057 C.ar    1  UNL1       -0.0045
     32 C          62.5761   85.0191    8.4901 C.ar    1  UNL1       -0.0245
     33 C          63.6539   84.7545    9.4992 C.3     1  UNL1        0.0307
     34 C          61.3849   85.8500    8.8653 C.ar    1  UNL1       -0.0105
@<TRIPOS>BOND
     1    27    28    1
     2    28    29   ar
     3    29    30   ar
     4    30    31   ar
     5    31    32   ar
     6    32    33    1
     7    32    34   ar
     8    34    26    1
     9    26    24    1
    10    24     1    1
    11     1     2   ar
    12     2     3   ar
    13     3    12    1
    14    12    13   ar
    15    13    14   ar
    16    14    19    1
    17    19    20   am
    18    19    21    2
    19    14    15   ar
    20    15    16   ar
    21    16    17   ar
    22    17    18    2
    23     3     4   ar
    24     4     5   ar
    25     5     6   ar
    26     6     7    1
    27     6     8   ar
    28     8     9    1
    29     8    10   ar
    30    10    11   ar
    31    34    28   ar
    32    11     1   ar
    33    17    12   ar
    34    11     5   ar
    35    24    25    1
    36    20    22    1
    37    20    23    1
@<TRIPOS>MOLECULE
*****
 34 37 0 0 0
SMALL
GASTEIGER

@<TRIPOS>ATOM
      1 C          62.9649   87.0043   11.8381 C.ar    1  UNL1        0.0813
      2 C          63.3105   88.2737   12.5585 C.ar    1  UNL1        0.0365
      3 C          63.8930   88.2175   13.9396 C.ar    1  UNL1        0.0857
      4 C          64.1299   86.8919   14.6003 C.ar    1  UNL1        0.0989
      5 N          63.7843   85.6224   13.8800 N.ar    1  UNL1       -0.2906
      6 C          63.9045   84.1801   14.2739 C.ar    1  UNL1        0.0567
      7 C          64.4391   83.6637   15.5768 C.3     1  UNL1        0.0517
      8 C          63.3964   83.3449   13.1363 C.ar    1  UNL1        0.0730
      9 C          63.3336   81.8465   13.1019 C.3     1  UNL1        0.0534
     10 N          62.9620   84.2710   12.0392 N.ar    1  UNL1       -0.2299
     11 C          63.2018   85.6786   12.4988 C.ar    1  UNL1        0.1604
     12 N          64.2387   89.4870   14.6601 N.ar    1  UNL1       -0.2715
     13 C          65.4077   90.3113   14.2083 C.ar    1  UNL1        0.0874
     14 C          65.7533   91.5807   14.9287 C.ar    1  UNL1        0.0709
     15 C          64.9300   92.0259   16.1010 C.ar    1  UNL1        0.0109
     16 C          63.7610   91.2017   16.5527 C.ar    1  UNL1        0.0613
     17 C          63.4154   89.9322   15.8322 C.ar    1  UNL1        0.2649
     18 O          62.2464   89.1079   16.2840 O.2     1  UNL1       -0.2666
     19 C          66.9223   92.4050   14.4770 C.2     1  UNL1        0.2442
     20 N          68.3156   91.8645   14.6058 N.am    1  UNL1       -0.3253
     21 O          66.6979   93.7698   13.8964 O.2     1  UNL1       -0.2703
     22 H          68.4628   90.9688   14.9869 H       1  UNL1        0.1453
     23 H          69.0828   92.4055   14.3093 H       1  UNL1        0.1453
     24 N          62.3824   87.0605   10.4569 N.pl3   1  UNL1       -0.3267
     25 H          62.9757   87.0450    9.6715 H       1  UNL1        0.1472
     26 C          60.8959   87.1402   10.2726 C.3     1  UNL1        0.1137
     27 C          60.4597   90.1024   10.4600 C.3     1  UNL1        0.0307
     28 C          60.1059   89.3704    9.1995 C.ar    1  UNL1       -0.0245
     29 C          59.5339   90.1196    8.0325 C.ar    1  UNL1       -0.0045
     30 C          59.1801   89.3877    6.7720 C.ar    1  UNL1       -0.0007
     31 C          59.3982   87.9066    6.6783 C.ar    1  UNL1       -0.0045
     32 C          59.9701   87.1574    7.8451 C.ar    1  UNL1       -0.0245
     33 C          60.1882   85.6763    7.7514 C.3     1  UNL1        0.0307
     34 C          60.3240   87.8893    9.1057 C.ar    1  UNL1       -0.0105
@<TRIPOS>BOND
     1    27    28    1
     2    28    29   ar
     3    29    30   ar
     4    30    31   ar
     5    31    32   ar
     6    32    33    1
     7    32    34   ar
     8    34    26    1
     9    26    24    1
    10    24     1    1
    11     1     2   ar
    12     2     3   ar
    13     3    12    1
    14    12    13   ar
    15    13    14   ar
    16    14    19    1
    17    19    20   am
    18    19    21    2
    19    14    15   ar
    20    15    16   ar
    21    16    17   ar
    22    17    18    2
    23     3     4   ar
    24     4     5   ar
    25     5     6   ar
    26     6     7    1
    27     6     8   ar
    28     8     9    1
    29     8    10   ar
    30    10    11   ar
    31    34    28   ar
    32    11     1   ar
    33    17    12   ar
    34    11     5   ar
    35    24    25    1
    36    20    22    1
    37    20    23    1
@<TRIPOS>MOLECULE
*****
 34 37 0 0 0
SMALL
GASTEIGER

@<TRIPOS>ATOM
      1 C          63.1454   87.2013   12.8347 C.ar    1  UNL1        0.0813
      2 C          62.2978   86.9109   11.6317 C.ar    1  UNL1        0.0365
      3 C          62.0054   87.9978   10.6402 C.ar    1  UNL1        0.0857
      4 C          62.5607   89.3751   10.8517 C.ar    1  UNL1        0.0989
      5 N          63.4084   89.6655   12.0546 N.ar    1  UNL1       -0.2906
      6 C          64.0884   90.9171   12.5249 C.ar    1  UNL1        0.0567
      7 C          64.0606   92.2483   11.8342 C.3     1  UNL1        0.0517
      8 C          64.8010   90.6037   13.8071 C.ar    1  UNL1        0.0730
      9 C          65.6111   91.5666   14.6237 C.3     1  UNL1        0.0534
     10 N          64.5615   89.1584   14.1292 N.ar    1  UNL1       -0.2299
     11 C          63.7007   88.5786   13.0461 C.ar    1  UNL1        0.1604
     12 N          61.1577   87.7075    9.4372 N.ar    1  UNL1       -0.2715
     13 C          60.6322   88.8358    8.6001 C.ar    1  UNL1        0.0874
     14 C          59.7845   88.5455    7.3971 C.ar    1  UNL1        0.0709
     15 C          59.4624   87.1268    7.0312 C.ar    1  UNL1        0.0109
     16 C          59.9879   85.9986    7.8684 C.ar    1  UNL1        0.0613
     17 C          60.8356   86.2889    9.0714 C.ar    1  UNL1        0.2649
     18 O          61.3612   85.1607    9.9085 O.2     1  UNL1       -0.2666
     19 C          59.2589   89.6737    6.5600 C.2     1  UNL1        0.2442
     20 N          60.2100   90.5499    5.8000 N.am    1  UNL1       -0.3253
     21 O          57.7822   89.9258    6.4829 O.2     1  UNL1       -0.2703
     22 H          61.1792   90.3845    5.8506 H       1  UNL1        0.1453
     23 H          59.8651   91.2905    5.2505 H       1  UNL1        0.1453
     24 N          63.4378   86.1144   13.8263 N.pl3   1  UNL1       -0.3267
     25 H          63.1417   86.2077   14.7605 H       1  UNL1        0.1472
     26 C          64.1815   84.8854   13.3943 C.3     1  UNL1        0.1137
     27 C          62.5213   83.8944   15.6882 C.3     1  UNL1        0.0307
     28 C          62.6333   83.0773   14.4354 C.ar    1  UNL1       -0.0245
     29 C          61.9152   81.7645   14.3294 C.ar    1  UNL1       -0.0045
     30 C          62.0272   80.9474   13.0766 C.ar    1  UNL1       -0.0007
     31 C          62.8572   81.4429   11.9296 C.ar    1  UNL1       -0.0045
     32 C          63.5753   82.7555   12.0355 C.ar    1  UNL1       -0.0245
     33 C          64.4054   83.2510   10.8886 C.3     1  UNL1        0.0307
     34 C          63.4634   83.5728   13.2884 C.ar    1  UNL1       -0.0105
@<TRIPOS>BOND
     1    27    28    1
     2    28    29   ar
     3    29    30   ar
     4    30    31   ar
     5    31    32   ar
     6    32    33    1
     7    32    34   ar
     8    34    26    1
     9    26    24    1
    10    24     1    1
    11     1     2   ar
    12     2     3   ar
    13     3    12    1
    14    12    13   ar
    15    13    14   ar
    16    14    19    1
    17    19    20   am
    18    19    21    2
    19    14    15   ar
    20    15    16   ar
    21    16    17   ar
    22    17    18    2
    23     3     4   ar
    24     4     5   ar
    25     5     6   ar
    26     6     7    1
    27     6     8   ar
    28     8     9    1
    29     8    10   ar
    30    10    11   ar
    31    34    28   ar
    32    11     1   ar
    33    17    12   ar
    34    11     5   ar
    35    24    25    1
    36    20    22    1
    37    20    23    1
