@<TRIPOS>MOLECULE
*****
 22 25 0 0 0
SMALL
GASTEIGER

@<TRIPOS>ATOM
      1 O          63.1541   88.1052   12.1649 O.2     1  UNL1       -0.2448
      2 C          62.3326   86.8861   11.8671 C.2     1  UNL1        0.3428
      3 C          61.4689   86.8445   10.6415 C.2     1  UNL1        0.0958
      4 C          60.1554   87.5470   10.4643 C.2     1  UNL1        0.1049
      5 N          59.6418   87.2298    9.0911 N.2     1  UNL1       -0.2475
      6 C          60.6378   86.3314    8.4196 C.2     1  UNL1        0.0660
      7 C          60.6623   85.6994    7.0596 C.3     1  UNL1        0.1022
      8 C          61.8161   84.8292    6.6577 C.2     1  UNL1        0.1236
      9 F          61.8407   84.1972    5.2975 F       1  UNL1       -0.2085
     10 C          62.9453   84.5911    7.6159 C.2     1  UNL1        0.0256
     11 C          62.9208   85.2231    8.9760 C.2     1  UNL1        0.0034
     12 C          61.7670   86.0933    9.3778 C.2     1  UNL1        0.0218
     13 O          62.3748   85.7083   12.7952 O.3     1  UNL1       -0.4454
     14 C          63.4981   84.7186   12.7003 C.3     1  UNL1        0.2087
     15 C          63.1999   83.2502   12.6314 C.3     1  UNL1        0.0445
     16 C          62.8084   82.5052   13.8730 C.3     1  UNL1        0.0210
     17 C          62.5102   81.0368   13.8040 C.3     1  UNL1        0.0722
     18 N          62.6037   80.3132   12.4933 N.3     1  UNL1       -0.2727
     19 C          62.9952   81.0582   11.2517 C.3     1  UNL1        0.0722
     20 C          63.2934   82.5267   11.3207 C.3     1  UNL1        0.0210
     21 C          62.7764   81.1182   12.4817 C.3     1  UNL1        0.0722
     22 C          63.0460   82.4460   12.5440 C.3     1  UNL1        0.0210
@<TRIPOS>BOND
     1     1     2    2
     2     2    13    1
     3    13    14    1
     4    14    15    1
     5    15    16    1
     6    16    17    1
     7    17    18    1
     8    18    19    1
     9    19    20    1
    10    18    21    1
    11    21    22    1
    12     2     3    1
    13     3     4    2
    14     4     5    1
    15     5     6    2
    16     6     7    1
    17     7     8    1
    18     8     9    1
    19     8    10    2
    20    10    11    1
    21    11    12    2
    22    20    15    1
    23    12     3    1
    24    22    15    1
    25    12     6    1
@<TRIPOS>MOLECULE
*****
 22 25 0 0 0
SMALL
GASTEIGER

@<TRIPOS>ATOM
      1 O          63.4936   82.6385   15.1007 O.2     1  UNL1       -0.2448
      2 C          63.4152   83.8339   14.1982 C.2     1  UNL1        0.3428
      3 C          63.6970   83.6869   12.7322 C.2     1  UNL1        0.0958
      4 C          64.6760   82.7333   12.1139 C.2     1  UNL1        0.1049
      5 N          64.6332   82.9247   10.6268 N.2     1  UNL1       -0.2475
      6 C          63.6278   83.9964   10.3260 C.2     1  UNL1        0.0660
      7 C          63.1644   84.6042    9.0354 C.3     1  UNL1        0.1022
      8 C          62.1224   85.6831    9.0460 C.2     1  UNL1        0.1236
      9 F          61.6590   86.2910    7.7553 F       1  UNL1       -0.2085
     10 C          61.5438   86.1542   10.3472 C.2     1  UNL1        0.0256
     11 C          62.0071   85.5464   11.6379 C.2     1  UNL1        0.0034
     12 C          63.0491   84.4675   11.6272 C.2     1  UNL1        0.0218
     13 O          63.0550   85.1767   14.7617 O.3     1  UNL1       -0.4454
     14 C          64.1245   86.0655   15.3239 C.3     1  UNL1        0.2087
     15 C          63.9200   87.5509   15.3653 C.3     1  UNL1        0.0445
     16 C          64.3112   88.3950   14.1887 C.3     1  UNL1        0.0210
     17 C          64.1067   89.8804   14.2303 C.3     1  UNL1        0.0722
     18 N          63.5109   90.5218   15.4484 N.3     1  UNL1       -0.2727
     19 C          63.1197   89.6777   16.6250 C.3     1  UNL1        0.0722
     20 C          63.3243   88.1922   16.5835 C.3     1  UNL1        0.0210
     21 C          63.6039   89.7040   15.4721 C.3     1  UNL1        0.0722
     22 C          63.7888   88.3608   15.4347 C.3     1  UNL1        0.0210
@<TRIPOS>BOND
     1     1     2    2
     2     2    13    1
     3    13    14    1
     4    14    15    1
     5    15    16    1
     6    16    17    1
     7    17    18    1
     8    18    19    1
     9    19    20    1
    10    18    21    1
    11    21    22    1
    12     2     3    1
    13     3     4    2
    14     4     5    1
    15     5     6    2
    16     6     7    1
    17     7     8    1
    18     8     9    1
    19     8    10    2
    20    10    11    1
    21    11    12    2
    22    20    15    1
    23    12     3    1
    24    22    15    1
    25    12     6    1
@<TRIPOS>MOLECULE
*****
 22 25 0 0 0
SMALL
GASTEIGER

@<TRIPOS>ATOM
      1 O          63.8671   86.8908   13.5300 O.2     1  UNL1       -0.2448
      2 C          62.8444   85.8975   13.0640 C.2     1  UNL1        0.3428
      3 C          62.8037   84.5242   13.6659 C.2     1  UNL1        0.0958
      4 C          62.7479   84.2048   15.1305 C.2     1  UNL1        0.1049
      5 N          62.7215   82.7124   15.2786 N.2     1  UNL1       -0.2475
      6 C          62.7610   82.1094   13.9057 C.2     1  UNL1        0.0660
      7 C          62.7572   80.6854   13.4344 C.3     1  UNL1        0.1022
      8 C          62.8043   80.3812   11.9664 C.2     1  UNL1        0.1236
      9 F          62.8005   78.9572   11.4950 F       1  UNL1       -0.2085
     10 C          62.8551   81.5010   10.9696 C.2     1  UNL1        0.0256
     11 C          62.8589   82.9250   11.4410 C.2     1  UNL1        0.0034
     12 C          62.8118   83.2292   12.9090 C.2     1  UNL1        0.0218
     13 O          61.8621   86.2776   11.9958 O.3     1  UNL1       -0.4454
     14 C          62.3470   86.8851   10.7129 C.3     1  UNL1        0.2087
     15 C          61.9025   86.3155    9.3984 C.3     1  UNL1        0.0445
     16 C          62.8551   85.5026    8.5727 C.3     1  UNL1        0.0210
     17 C          62.4106   84.9330    7.2582 C.3     1  UNL1        0.0722
     18 N          61.0135   85.1764    6.7692 N.3     1  UNL1       -0.2727
     19 C          60.0610   85.9894    7.5949 C.3     1  UNL1        0.0722
     20 C          60.5055   86.5590    8.9095 C.3     1  UNL1        0.0210
     21 C          61.2115   85.5089    7.4960 C.3     1  UNL1        0.0722
     22 C          61.6133   86.0240    8.6847 C.3     1  UNL1        0.0210
@<TRIPOS>BOND
     1     1     2    2
     2     2    13    1
     3    13    14    1
     4    14    15    1
     5    15    16    1
     6    16    17    1
     7    17    18    1
     8    18    19    1
     9    19    20    1
    10    18    21    1
    11    21    22    1
    12     2     3    1
    13     3     4    2
    14     4     5    1
    15     5     6    2
    16     6     7    1
    17     7     8    1
    18     8     9    1
    19     8    10    2
    20    10    11    1
    21    11    12    2
    22    20    15    1
    23    12     3    1
    24    22    15    1
    25    12     6    1
@<TRIPOS>MOLECULE
*****
 22 25 0 0 0
SMALL
GASTEIGER

@<TRIPOS>ATOM
      1 O          64.4041   91.8947   15.8146 O.2     1  UNL1       -0.2448
      2 C          65.2029   90.9946   14.9194 C.2     1  UNL1        0.3428
      3 C          64.5259   89.8775   14.1818 C.2     1  UNL1        0.0958
      4 C          64.4515   88.4463   14.6246 C.2     1  UNL1        0.1049
      5 N          63.6841   87.6799   13.5884 N.2     1  UNL1       -0.2475
      6 C          63.2842   88.6374   12.5053 C.2     1  UNL1        0.0660
      7 C          62.5136   88.4480   11.2324 C.3     1  UNL1        0.1022
      8 C          62.2632   89.6169   10.3263 C.2     1  UNL1        0.1236
      9 F          61.4925   89.4275    9.0534 F       1  UNL1       -0.2085
     10 C          62.7835   90.9751   10.6931 C.2     1  UNL1        0.0256
     11 C          63.5541   91.1645   11.9659 C.2     1  UNL1        0.0034
     12 C          63.8045   89.9957   12.8720 C.2     1  UNL1        0.0218
     13 O          66.6788   91.2114   14.7616 O.3     1  UNL1       -0.4454
     14 C          67.1900   92.4946   14.1768 C.3     1  UNL1        0.2087
     15 C          66.9513   92.8066   12.7292 C.3     1  UNL1        0.0445
     16 C          67.6616   92.0225   11.6659 C.3     1  UNL1        0.0210
     17 C          67.4227   92.3346   10.2183 C.3     1  UNL1        0.0722
     18 N          66.4736   93.4307    9.8339 N.3     1  UNL1       -0.2727
     19 C          65.7633   94.2148   10.8973 C.3     1  UNL1        0.0722
     20 C          66.0021   93.9027   12.3450 C.3     1  UNL1        0.0210
     21 C          66.5723   93.2962   10.6403 C.3     1  UNL1        0.0722
     22 C          66.7881   93.0141   11.9493 C.3     1  UNL1        0.0210
@<TRIPOS>BOND
     1     1     2    2
     2     2    13    1
     3    13    14    1
     4    14    15    1
     5    15    16    1
     6    16    17    1
     7    17    18    1
     8    18    19    1
     9    19    20    1
    10    18    21    1
    11    21    22    1
    12     2     3    1
    13     3     4    2
    14     4     5    1
    15     5     6    2
    16     6     7    1
    17     7     8    1
    18     8     9    1
    19     8    10    2
    20    10    11    1
    21    11    12    2
    22    20    15    1
    23    12     3    1
    24    22    15    1
    25    12     6    1
@<TRIPOS>MOLECULE
*****
 22 25 0 0 0
SMALL
GASTEIGER

@<TRIPOS>ATOM
      1 O          60.3573   88.4686   11.9081 O.2     1  UNL1       -0.2448
      2 C          61.6787   88.4470   11.1987 C.2     1  UNL1        0.3428
      3 C          62.5591   89.6613   11.2155 C.2     1  UNL1        0.0958
      4 C          62.6525   90.6976   10.1351 C.2     1  UNL1        0.1049
      5 N          63.6518   91.7293   10.5677 N.2     1  UNL1       -0.2475
      6 C          64.1759   91.3306   11.9154 C.2     1  UNL1        0.0660
      7 C          65.1809   91.9662   12.8297 C.3     1  UNL1        0.1022
      8 C          65.5106   91.3237   14.1443 C.2     1  UNL1        0.1236
      9 F          66.5156   91.9593   15.0587 F       1  UNL1       -0.2085
     10 C          64.8352   90.0456   14.5448 C.2     1  UNL1        0.0256
     11 C          63.8302   89.4099   13.6305 C.2     1  UNL1        0.0034
     12 C          63.5006   90.0525   12.3158 C.2     1  UNL1        0.0218
     13 O          62.1198   87.2108   10.4723 O.3     1  UNL1       -0.4454
     14 C          61.6585   85.8619   10.9389 C.3     1  UNL1        0.2087
     15 C          62.6506   84.7520   11.1218 C.3     1  UNL1        0.0445
     16 C          63.3297   84.1486    9.9282 C.3     1  UNL1        0.0210
     17 C          64.3219   83.0387   10.1112 C.3     1  UNL1        0.0722
     18 N          64.6351   82.5319   11.4879 N.3     1  UNL1       -0.2727
     19 C          63.9560   83.1353   12.6815 C.3     1  UNL1        0.0722
     20 C          62.9637   84.2453   12.4985 C.3     1  UNL1        0.0210
     21 C          64.0843   83.1420   11.4375 C.3     1  UNL1        0.0722
     22 C          63.1872   84.1457   11.2721 C.3     1  UNL1        0.0210
@<TRIPOS>BOND
     1     1     2    2
     2     2    13    1
     3    13    14    1
     4    14    15    1
     5    15    16    1
     6    16    17    1
     7    17    18    1
     8    18    19    1
     9    19    20    1
    10    18    21    1
    11    21    22    1
    12     2     3    1
    13     3     4    2
    14     4     5    1
    15     5     6    2
    16     6     7    1
    17     7     8    1
    18     8     9    1
    19     8    10    2
    20    10    11    1
    21    11    12    2
    22    20    15    1
    23    12     3    1
    24    22    15    1
    25    12     6    1
@<TRIPOS>MOLECULE
*****
 22 25 0 0 0
SMALL
GASTEIGER

@<TRIPOS>ATOM
      1 O          62.1838   89.7040   13.1256 O.2     1  UNL1       -0.2448
      2 C          62.9313   89.9421   11.8472 C.2     1  UNL1        0.3428
      3 C          63.8907   91.0903   11.7419 C.2     1  UNL1        0.0958
      4 C          64.1590   91.9051   10.5114 C.2     1  UNL1        0.1049
      5 N          65.1843   92.9437   10.8577 N.2     1  UNL1       -0.2475
      6 C          65.5497   92.7708   12.3022 C.2     1  UNL1        0.0660
      7 C          66.5071   93.5085   13.1906 C.3     1  UNL1        0.1022
      8 C          66.6650   93.1006   14.6254 C.2     1  UNL1        0.1236
      9 F          67.6225   93.8383   15.5138 F       1  UNL1       -0.2085
     10 C          65.8655   91.9552   15.1718 C.2     1  UNL1        0.0256
     11 C          64.9081   91.2175   14.2835 C.2     1  UNL1        0.0034
     12 C          64.7502   91.6254   12.8487 C.2     1  UNL1        0.0218
     13 O          62.7193   89.0318   10.6738 O.3     1  UNL1       -0.4454
     14 C          61.8638   87.8082   10.8188 C.3     1  UNL1        0.2087
     15 C          61.4199   87.0549    9.6000 C.3     1  UNL1        0.0445
     16 C          62.3468   86.0739    8.9457 C.3     1  UNL1        0.0210
     17 C          61.9028   85.3206    7.7269 C.3     1  UNL1        0.0722
     18 N          60.5318   85.5483    7.1624 N.3     1  UNL1       -0.2727
     19 C          59.6048   86.5294    7.8168 C.3     1  UNL1        0.0722
     20 C          60.0489   87.2827    9.0357 C.3     1  UNL1        0.0210
     21 C          60.7305   85.9845    7.8320 C.3     1  UNL1        0.0722
     22 C          61.1319   86.6657    8.9340 C.3     1  UNL1        0.0210
@<TRIPOS>BOND
     1     1     2    2
     2     2    13    1
     3    13    14    1
     4    14    15    1
     5    15    16    1
     6    16    17    1
     7    17    18    1
     8    18    19    1
     9    19    20    1
    10    18    21    1
    11    21    22    1
    12     2     3    1
    13     3     4    2
    14     4     5    1
    15     5     6    2
    16     6     7    1
    17     7     8    1
    18     8     9    1
    19     8    10    2
    20    10    11    1
    21    11    12    2
    22    20    15    1
    23    12     3    1
    24    22    15    1
    25    12     6    1
@<TRIPOS>MOLECULE
*****
 22 25 0 0 0
SMALL
GASTEIGER

@<TRIPOS>ATOM
      1 O          64.7438   82.5567   10.4391 O.2     1  UNL1       -0.2448
      2 C          63.6787   83.4547   10.9949 C.2     1  UNL1        0.3428
      3 C          63.1491   83.2226   12.3790 C.2     1  UNL1        0.0958
      4 C          62.3374   82.0431   12.8262 C.2     1  UNL1        0.1049
      5 N          62.0249   82.2208   14.2824 N.2     1  UNL1       -0.2475
      6 C          62.6433   83.5102   14.7353 C.2     1  UNL1        0.0660
      7 C          62.6636   84.2004   16.0668 C.3     1  UNL1        0.1022
      8 C          63.3786   85.5098   16.2220 C.2     1  UNL1        0.1236
      9 F          63.3989   86.2002   17.5536 F       1  UNL1       -0.2085
     10 C          64.0734   86.1290   15.0456 C.2     1  UNL1        0.0256
     11 C          64.0532   85.4387   13.7140 C.2     1  UNL1        0.0034
     12 C          63.3381   84.1293   13.5589 C.2     1  UNL1        0.0218
     13 O          63.1431   84.5848   10.1666 O.3     1  UNL1       -0.4454
     14 C          61.8758   85.2772   10.5725 C.3     1  UNL1        0.2087
     15 C          61.7118   86.7473   10.3242 C.3     1  UNL1        0.0445
     16 C          62.4933   87.7369   11.1366 C.3     1  UNL1        0.0210
     17 C          62.3293   89.2071   10.8883 C.3     1  UNL1        0.0722
     18 N          61.3838   89.6878    9.8276 N.3     1  UNL1       -0.2727
     19 C          60.6023   88.6982    9.0152 C.3     1  UNL1        0.0722
     20 C          60.7663   87.2279    9.2635 C.3     1  UNL1        0.0210
     21 C          61.4402   88.8723    9.9273 C.3     1  UNL1        0.0722
     22 C          61.5884   87.5430   10.1518 C.3     1  UNL1        0.0210
@<TRIPOS>BOND
     1     1     2    2
     2     2    13    1
     3    13    14    1
     4    14    15    1
     5    15    16    1
     6    16    17    1
     7    17    18    1
     8    18    19    1
     9    19    20    1
    10    18    21    1
    11    21    22    1
    12     2     3    1
    13     3     4    2
    14     4     5    1
    15     5     6    2
    16     6     7    1
    17     7     8    1
    18     8     9    1
    19     8    10    2
    20    10    11    1
    21    11    12    2
    22    20    15    1
    23    12     3    1
    24    22    15    1
    25    12     6    1
@<TRIPOS>MOLECULE
*****
 22 25 0 0 0
SMALL
GASTEIGER

@<TRIPOS>ATOM
      1 O          62.8456   86.4989   12.2620 O.2     1  UNL1       -0.2448
      2 C          63.5333   85.9890   13.4936 C.2     1  UNL1        0.3428
      3 C          63.2215   84.6168   14.0131 C.2     1  UNL1        0.0958
      4 C          62.9528   84.2558   15.4440 C.2     1  UNL1        0.1049
      5 N          62.6888   82.7807   15.5081 N.2     1  UNL1       -0.2475
      6 C          62.7943   82.2299   14.1168 C.2     1  UNL1        0.0660
      7 C          62.6330   80.8418   13.5720 C.3     1  UNL1        0.1022
      8 C          62.8010   80.5884   12.1031 C.2     1  UNL1        0.1236
      9 F          62.6398   79.2002   11.5582 F       1  UNL1       -0.2085
     10 C          63.1302   81.7233   11.1792 C.2     1  UNL1        0.0256
     11 C          63.2914   83.1114   11.7240 C.2     1  UNL1        0.0034
     12 C          63.1235   83.3648   13.1928 C.2     1  UNL1        0.0218
     13 O          64.5331   86.8513   14.2057 O.3     1  UNL1       -0.4454
     14 C          64.0926   88.1287   14.8572 C.3     1  UNL1        0.2087
     15 C          64.2794   89.4362   14.1463 C.3     1  UNL1        0.0445
     16 C          65.3074   90.4142   14.6325 C.3     1  UNL1        0.0210
     17 C          65.4941   91.7218   13.9216 C.3     1  UNL1        0.0722
     18 N          64.6527   92.0514   12.7243 N.3     1  UNL1       -0.2727
     19 C          63.6246   91.0733   12.2380 C.3     1  UNL1        0.0722
     20 C          63.4379   89.7657   12.9490 C.3     1  UNL1        0.0210
     21 C          64.5141   91.3223   13.0812 C.3     1  UNL1        0.0722
     22 C          64.3453   90.1400   13.7240 C.3     1  UNL1        0.0210
@<TRIPOS>BOND
     1     1     2    2
     2     2    13    1
     3    13    14    1
     4    14    15    1
     5    15    16    1
     6    16    17    1
     7    17    18    1
     8    18    19    1
     9    19    20    1
    10    18    21    1
    11    21    22    1
    12     2     3    1
    13     3     4    2
    14     4     5    1
    15     5     6    2
    16     6     7    1
    17     7     8    1
    18     8     9    1
    19     8    10    2
    20    10    11    1
    21    11    12    2
    22    20    15    1
    23    12     3    1
    24    22    15    1
    25    12     6    1
@<TRIPOS>MOLECULE
*****
 22 25 0 0 0
SMALL
GASTEIGER

@<TRIPOS>ATOM
      1 O          62.3817   85.9629    9.6960 O.2     1  UNL1       -0.2448
      2 C          62.2244   86.6448   11.0226 C.2     1  UNL1        0.3428
      3 C          62.4334   88.1260   11.1341 C.2     1  UNL1        0.0958
      4 C          61.9478   89.1605   10.1625 C.2     1  UNL1        0.1049
      5 N          62.3790   90.5065   10.6647 N.2     1  UNL1       -0.2475
      6 C          63.1311   90.3040   11.9466 C.2     1  UNL1        0.0660
      7 C          63.7897   91.2691   12.8871 C.3     1  UNL1        0.1022
      8 C          64.4819   90.7630   14.1178 C.2     1  UNL1        0.1236
      9 F          65.1405   91.7282   15.0584 F       1  UNL1       -0.2085
     10 C          64.5155   89.2917   14.4079 C.2     1  UNL1        0.0256
     11 C          63.8570   88.3265   13.4674 C.2     1  UNL1        0.0034
     12 C          63.1647   88.8327   12.2367 C.2     1  UNL1        0.0218
     13 O          61.8581   85.8455   12.2380 O.3     1  UNL1       -0.4454
     14 C          62.8859   84.9793   12.9038 C.3     1  UNL1        0.2087
     15 C          62.7706   83.4857   12.8282 C.3     1  UNL1        0.0445
     16 C          62.3294   82.7056   14.0310 C.3     1  UNL1        0.0210
     17 C          62.2141   81.2120   13.9553 C.3     1  UNL1        0.0722
     18 N          62.5401   80.4983   12.6768 N.3     1  UNL1       -0.2727
     19 C          62.9813   81.2784   11.4740 C.3     1  UNL1        0.0722
     20 C          63.0966   82.7721   11.5497 C.3     1  UNL1        0.0210
     21 C          62.6181   81.3180   12.6702 C.3     1  UNL1        0.0722
     22 C          62.7224   82.6686   12.7385 C.3     1  UNL1        0.0210
@<TRIPOS>BOND
     1     1     2    2
     2     2    13    1
     3    13    14    1
     4    14    15    1
     5    15    16    1
     6    16    17    1
     7    17    18    1
     8    18    19    1
     9    19    20    1
    10    18    21    1
    11    21    22    1
    12     2     3    1
    13     3     4    2
    14     4     5    1
    15     5     6    2
    16     6     7    1
    17     7     8    1
    18     8     9    1
    19     8    10    2
    20    10    11    1
    21    11    12    2
    22    20    15    1
    23    12     3    1
    24    22    15    1
    25    12     6    1
