@<TRIPOS>MOLECULE
*****
 48 53 0 0 0
SMALL
GASTEIGER

@<TRIPOS>ATOM
      1 N          61.1322   87.1861    8.9979 N.am    1  UNL1       -0.2541
      2 C          60.0512   86.9723    7.9802 C.2     1  UNL1        0.2456
      3 O          59.8121   85.6030    7.4163 O.2     1  UNL1       -0.2730
      4 C          59.2094   88.1278    7.5262 C.3     1  UNL1        0.1555
      5 N          59.4484   89.4971    8.0900 N.3     1  UNL1       -0.2883
      6 C          60.5293   89.7109    9.1078 C.3     1  UNL1        0.0932
      7 C          61.3712   88.5554    9.5617 C.3     1  UNL1        0.1390
      8 H          58.5738   89.7943    8.5226 H       1  UNL1        0.1237
      9 C          63.6577   83.7196   10.3598 C.ar    1  UNL1        0.1386
     10 C          63.7526   84.2061    8.9441 C.ar    1  UNL1        0.0382
     11 C          62.9107   85.3616    8.4902 C.ar    1  UNL1        0.0180
     12 C          61.9740   86.0306    9.4519 C.ar    1  UNL1        0.0542
     13 C          61.8792   85.5441   10.8676 C.ar    1  UNL1        0.0180
     14 C          62.7210   84.3886   11.3216 C.ar    1  UNL1        0.0382
     15 O          64.4996   82.5641   10.8138 O.3     1  UNL1       -0.4754
     16 C          64.0679   81.7376   11.9887 C.3     1  UNL1        0.2080
     17 C          62.7089   81.1029   12.0004 C.3     1  UNL1        0.0794
     18 C          61.8699   81.1497   13.2431 C.3     1  UNL1        0.1465
     19 O          62.4936   81.5224   14.5554 O.3     1  UNL1       -0.3488
     20 C          62.2635   82.8868   15.1345 C.3     1  UNL1        0.1716
     21 C          63.2015   85.2114   15.8176 C.ar    1  UNL1        0.1370
     22 C          64.2805   86.2506   15.7405 C.ar    1  UNL1        0.0367
     23 C          65.5004   86.0044   14.9032 C.ar    1  UNL1        0.0031
     24 C          65.6414   84.7190   14.1430 C.ar    1  UNL1       -0.0000
     25 C          64.5624   83.6798   14.2201 C.ar    1  UNL1        0.0012
     26 C          63.3425   83.9260   15.0574 C.ar    1  UNL1        0.0413
     27 C          61.9906   86.5398   17.6935 C.3     1  UNL1        0.2525
     28 O          61.9815   85.4576   16.6549 O.3     1  UNL1       -0.4717
     29 C          62.4522   88.7692   10.5796 C.3     1  UNL1        0.2267
     30 O          62.1549   89.5219   11.8425 O.3     1  UNL1       -0.4736
     31 C          63.2796   90.0349   12.6922 C.ar    1  UNL1        0.1398
     32 C          63.6311   89.3368   13.9724 C.ar    1  UNL1        0.0367
     33 C          64.7557   89.8498   14.8221 C.ar    1  UNL1        0.0001
     34 C          65.5288   91.0610   14.3916 C.ar    1  UNL1       -0.0086
     35 C          65.1772   91.7592   13.1114 C.ar    1  UNL1        0.0469
     36 C          64.0526   91.2462   12.2617 C.ar    1  UNL1        0.0511
     37 N          65.9503   92.9704   12.6809 N.pl3   1  UNL1       -0.3059
     38 C          67.0749   93.4835   13.5306 C.3     1  UNL1        0.0912
     39 C          67.4265   92.7853   14.8109 C.3     1  UNL1        0.0261
     40 C          66.6534   91.5741   15.2414 C.3     1  UNL1        0.0294
     41 C          65.5988   93.6686   11.4007 C.3     1  UNL1        0.1124
     42 C          65.9406   95.1177   11.2183 C.3     1  UNL1        0.1182
     43 N          66.4150   95.6143    9.8847 N.am    1  UNL1       -0.2404
     44 C          65.7564   96.6753    9.0538 C.3     1  UNL1        0.1442
     45 C          66.5656   96.8538    7.8035 C.3     1  UNL1        0.2316
     46 O          67.7244   95.9030    7.8616 O.3     1  UNL1       -0.4326
     47 C          67.6313   95.1370    9.1479 C.2     1  UNL1        0.4051
     48 O          68.5867   94.0793    9.6153 O.2     1  UNL1       -0.2262
@<TRIPOS>BOND
     1    27    28    1
     2    28    21    1
     3    21    22   ar
     4    22    23   ar
     5    23    24   ar
     6    24    25   ar
     7    25    26   ar
     8    26    20    1
     9    20    19    1
    10    19    18    1
    11    18    17    1
    12    17    16    1
    13    16    15    1
    14    15     9    1
    15     9    10   ar
    16    10    11   ar
    17    11    12   ar
    18    12     1    1
    19     1     2   am
    20     2     3    2
    21     2     4    1
    22     4     5    1
    23     5     6    1
    24     6     7    1
    25     7    29    1
    26    29    30    1
    27    30    31    1
    28    31    32   ar
    29    32    33   ar
    30    33    34   ar
    31    34    35   ar
    32    35    36   ar
    33    35    37    1
    34    37    41    1
    35    41    42    1
    36    42    43    1
    37    43    44    1
    38    44    45    1
    39    45    46    1
    40    46    47    1
    41    47    48    2
    42    37    38    1
    43    38    39    1
    44    39    40    1
    45    12    13   ar
    46    13    14   ar
    47    26    21   ar
    48    14     9   ar
    49     7     1    1
    50    36    31   ar
    51    47    43   am
    52    40    34    1
    53     5     8    1
@<TRIPOS>MOLECULE
*****
 48 53 0 0 0
SMALL
GASTEIGER

@<TRIPOS>ATOM
      1 N          61.2067   88.4572    9.6946 N.am    1  UNL1       -0.2541
      2 C          60.0714   89.0555    8.9181 C.2     1  UNL1        0.2456
      3 O          59.7020   90.4955    9.1190 O.2     1  UNL1       -0.2730
      4 C          59.3054   88.2141    7.9408 C.3     1  UNL1        0.1555
      5 N          59.6747   86.7742    7.7400 N.3     1  UNL1       -0.2883
      6 C          60.8100   86.1758    8.5164 C.3     1  UNL1        0.0932
      7 C          61.5760   87.0173    9.4938 C.3     1  UNL1        0.1390
      8 H          59.9032   86.6639    6.7520 H       1  UNL1        0.1237
      9 C          63.5047   90.9816   12.6266 C.ar    1  UNL1        0.1386
     10 C          62.4833   90.0006   13.1207 C.ar    1  UNL1        0.0382
     11 C          61.7173   89.1591   12.1434 C.ar    1  UNL1        0.0180
     12 C          61.9727   89.2986   10.6719 C.ar    1  UNL1        0.0542
     13 C          62.9942   90.2797   10.1778 C.ar    1  UNL1        0.0180
     14 C          63.7602   91.1211   11.1551 C.ar    1  UNL1        0.0382
     15 O          64.2707   91.8231   13.6039 O.3     1  UNL1       -0.4754
     16 C          65.3601   91.2076   14.4311 C.3     1  UNL1        0.2080
     17 C          66.6839   91.9005   14.5633 C.3     1  UNL1        0.0794
     18 C          66.7351   93.3792   14.8101 C.3     1  UNL1        0.1465
     19 O          66.8421   94.3292   13.6542 O.3     1  UNL1       -0.3488
     20 C          66.0953   94.0512   12.3834 C.3     1  UNL1        0.1716
     21 C          67.0918   94.7736   10.0953 C.ar    1  UNL1        0.1370
     22 C          67.8437   94.4376    8.8417 C.ar    1  UNL1        0.0367
     23 C          68.3512   93.0433    8.6224 C.ar    1  UNL1        0.0031
     24 C          68.1067   91.9849    9.6567 C.ar    1  UNL1       -0.0000
     25 C          67.3548   92.3208   10.9104 C.ar    1  UNL1        0.0012
     26 C          66.8473   93.7152   11.1297 C.ar    1  UNL1        0.0413
     27 C          65.2693   96.5885    9.7282 C.3     1  UNL1        0.2525
     28 O          66.5843   96.1681   10.3146 O.3     1  UNL1       -0.4717
     29 C          62.7114   86.4189   10.2703 C.3     1  UNL1        0.2267
     30 O          63.4394   85.2226    9.7327 O.3     1  UNL1       -0.4736
     31 C          63.2588   83.8815   10.3799 C.ar    1  UNL1        0.1398
     32 C          63.5004   82.6292    9.5903 C.ar    1  UNL1        0.0367
     33 C          63.3198   81.2881   10.2375 C.ar    1  UNL1        0.0001
     34 C          62.8977   81.1993   11.6741 C.ar    1  UNL1       -0.0086
     35 C          62.6561   82.4516   12.4636 C.ar    1  UNL1        0.0469
     36 C          62.8367   83.7927   11.8165 C.ar    1  UNL1        0.0511
     37 N          62.2340   82.3628   13.9003 N.pl3   1  UNL1       -0.3059
     38 C          62.0534   81.0217   14.5474 C.3     1  UNL1        0.0912
     39 C          62.2950   79.7693   13.7579 C.3     1  UNL1        0.0261
     40 C          62.7171   79.8581   12.3212 C.3     1  UNL1        0.0294
     41 C          61.9925   83.6151   14.6898 C.3     1  UNL1        0.1124
     42 C          63.0445   84.1232   15.6306 C.3     1  UNL1        0.1182
     43 N          63.3839   85.5841   15.6578 N.am    1  UNL1       -0.2404
     44 C          64.2269   86.3123   14.6533 C.3     1  UNL1        0.1442
     45 C          64.3039   87.7515   15.0690 C.3     1  UNL1        0.2316
     46 O          63.5083   87.9128   16.3305 O.3     1  UNL1       -0.4326
     47 C          62.9398   86.5733   16.6943 C.2     1  UNL1        0.4051
     48 O          62.0784   86.2752   17.8856 O.2     1  UNL1       -0.2262
@<TRIPOS>BOND
     1    27    28    1
     2    28    21    1
     3    21    22   ar
     4    22    23   ar
     5    23    24   ar
     6    24    25   ar
     7    25    26   ar
     8    26    20    1
     9    20    19    1
    10    19    18    1
    11    18    17    1
    12    17    16    1
    13    16    15    1
    14    15     9    1
    15     9    10   ar
    16    10    11   ar
    17    11    12   ar
    18    12     1    1
    19     1     2   am
    20     2     3    2
    21     2     4    1
    22     4     5    1
    23     5     6    1
    24     6     7    1
    25     7    29    1
    26    29    30    1
    27    30    31    1
    28    31    32   ar
    29    32    33   ar
    30    33    34   ar
    31    34    35   ar
    32    35    36   ar
    33    35    37    1
    34    37    41    1
    35    41    42    1
    36    42    43    1
    37    43    44    1
    38    44    45    1
    39    45    46    1
    40    46    47    1
    41    47    48    2
    42    37    38    1
    43    38    39    1
    44    39    40    1
    45    12    13   ar
    46    13    14   ar
    47    26    21   ar
    48    14     9   ar
    49     7     1    1
    50    36    31   ar
    51    47    43   am
    52    40    34    1
    53     5     8    1
@<TRIPOS>MOLECULE
*****
 48 53 0 0 0
SMALL
GASTEIGER

@<TRIPOS>ATOM
      1 N          60.7956   87.0708    8.7619 N.am    1  UNL1       -0.2541
      2 C          60.0120   86.6459    7.5556 C.2     1  UNL1        0.2456
      3 O          60.0976   85.2307    7.0659 O.2     1  UNL1       -0.2730
      4 C          59.1426   87.6362    6.8390 C.3     1  UNL1        0.1555
      5 N          59.0570   89.0514    7.3287 N.3     1  UNL1       -0.2883
      6 C          59.8407   89.4763    8.5350 C.3     1  UNL1        0.0932
      7 C          60.7100   88.4860    9.2517 C.3     1  UNL1        0.1390
      8 H          58.0749   89.2320    7.5369 H       1  UNL1        0.1237
      9 C          63.4036   84.0999   10.9118 C.ar    1  UNL1        0.1386
     10 C          62.3827   84.8913   11.6742 C.ar    1  UNL1        0.0382
     11 C          61.5133   85.8816   10.9575 C.ar    1  UNL1        0.0180
     12 C          61.6650   86.0805    9.4786 C.ar    1  UNL1        0.0542
     13 C          62.6859   85.2891    8.7162 C.ar    1  UNL1        0.0180
     14 C          63.5553   84.2987    9.4328 C.ar    1  UNL1        0.0382
     15 O          64.2729   83.1095   11.6284 O.3     1  UNL1       -0.4754
     16 C          63.7837   81.7103   11.8582 C.3     1  UNL1        0.2080
     17 C          63.4349   81.2558   13.2444 C.3     1  UNL1        0.0794
     18 C          62.1877   81.7605   13.9076 C.3     1  UNL1        0.1465
     19 O          62.1162   83.1791   14.3900 O.3     1  UNL1       -0.3488
     20 C          62.7025   83.5494   15.7200 C.3     1  UNL1        0.1716
     21 C          63.8829   85.8205   15.2743 C.ar    1  UNL1        0.1370
     22 C          64.0980   87.2633   15.6236 C.ar    1  UNL1        0.0367
     23 C          63.3477   87.8779   16.7678 C.ar    1  UNL1        0.0031
     24 C          62.3824   87.0496   17.5628 C.ar    1  UNL1       -0.0000
     25 C          62.1673   85.6068   17.2135 C.ar    1  UNL1        0.0012
     26 C          62.9176   84.9922   16.0693 C.ar    1  UNL1        0.0413
     27 C          65.9271   84.4895   14.3800 C.3     1  UNL1        0.2525
     28 O          64.6332   85.2060   14.1299 O.3     1  UNL1       -0.4717
     29 C          61.4937   88.9109   10.4580 C.3     1  UNL1        0.2267
     30 O          62.5926   89.9225   10.3204 O.3     1  UNL1       -0.4736
     31 C          63.4190   90.2995   11.5142 C.ar    1  UNL1        0.1398
     32 C          63.5080   89.3703   12.6884 C.ar    1  UNL1        0.0367
     33 C          64.3342   89.7473   13.8821 C.ar    1  UNL1        0.0001
     34 C          65.0715   91.0534   13.9017 C.ar    1  UNL1       -0.0086
     35 C          64.9825   91.9826   12.7276 C.ar    1  UNL1        0.0469
     36 C          64.1562   91.6056   11.5339 C.ar    1  UNL1        0.0511
     37 N          65.7197   93.2888   12.7472 N.pl3   1  UNL1       -0.3059
     38 C          66.5460   93.6658   13.9410 C.3     1  UNL1        0.0912
     39 C          66.6351   92.7366   15.1152 C.3     1  UNL1        0.0261
     40 C          65.8978   91.4304   15.0956 C.3     1  UNL1        0.0294
     41 C          65.6307   94.2180   11.5731 C.3     1  UNL1        0.1124
     42 C          66.8827   94.7108   10.9101 C.3     1  UNL1        0.1182
     43 N          67.5794   93.8559    9.8933 N.am    1  UNL1       -0.2404
     44 C          68.1607   92.4945   10.1355 C.3     1  UNL1        0.1442
     45 C          68.7576   92.0095    8.8477 C.3     1  UNL1        0.2316
     46 O          68.5452   93.0712    7.8095 O.3     1  UNL1       -0.4326
     47 C          67.8170   94.2123    8.4557 C.2     1  UNL1        0.4051
     48 O          67.3998   95.4862    7.7826 O.2     1  UNL1       -0.2262
@<TRIPOS>BOND
     1    27    28    1
     2    28    21    1
     3    21    22   ar
     4    22    23   ar
     5    23    24   ar
     6    24    25   ar
     7    25    26   ar
     8    26    20    1
     9    20    19    1
    10    19    18    1
    11    18    17    1
    12    17    16    1
    13    16    15    1
    14    15     9    1
    15     9    10   ar
    16    10    11   ar
    17    11    12   ar
    18    12     1    1
    19     1     2   am
    20     2     3    2
    21     2     4    1
    22     4     5    1
    23     5     6    1
    24     6     7    1
    25     7    29    1
    26    29    30    1
    27    30    31    1
    28    31    32   ar
    29    32    33   ar
    30    33    34   ar
    31    34    35   ar
    32    35    36   ar
    33    35    37    1
    34    37    41    1
    35    41    42    1
    36    42    43    1
    37    43    44    1
    38    44    45    1
    39    45    46    1
    40    46    47    1
    41    47    48    2
    42    37    38    1
    43    38    39    1
    44    39    40    1
    45    12    13   ar
    46    13    14   ar
    47    26    21   ar
    48    14     9   ar
    49     7     1    1
    50    36    31   ar
    51    47    43   am
    52    40    34    1
    53     5     8    1
@<TRIPOS>MOLECULE
*****
 48 53 0 0 0
SMALL
GASTEIGER

@<TRIPOS>ATOM
      1 N          61.1437   87.8321    9.1231 N.am    1  UNL1       -0.2541
      2 C          59.7433   88.1725    8.7074 C.2     1  UNL1        0.2456
      3 O          59.1118   89.4503    9.1749 O.2     1  UNL1       -0.2730
      4 C          58.9743   87.2351    7.8242 C.3     1  UNL1        0.1555
      5 N          59.6058   85.9574    7.3566 N.3     1  UNL1       -0.2883
      6 C          61.0062   85.6170    7.7723 C.3     1  UNL1        0.0932
      7 C          61.7752   86.5543    8.6555 C.3     1  UNL1        0.1390
      8 H          59.5989   85.9815    6.3369 H       1  UNL1        0.1237
      9 C          63.4507   90.6440   11.7727 C.ar    1  UNL1        0.1386
     10 C          63.1192   91.0422   10.3651 C.ar    1  UNL1        0.0382
     11 C          62.3502   90.1049    9.4819 C.ar    1  UNL1        0.0180
     12 C          61.9127   88.7694   10.0063 C.ar    1  UNL1        0.0542
     13 C          62.2443   88.3712   11.4139 C.ar    1  UNL1        0.0180
     14 C          63.0133   89.3086   12.2972 C.ar    1  UNL1        0.0382
     15 O          64.2197   91.5814   12.6559 O.3     1  UNL1       -0.4754
     16 C          65.1427   91.0359   13.7049 C.3     1  UNL1        0.2080
     17 C          66.4815   91.6735   13.9309 C.3     1  UNL1        0.0794
     18 C          66.5716   93.1376   14.2444 C.3     1  UNL1        0.1465
     19 O          66.4937   94.1476   13.1381 O.3     1  UNL1       -0.3488
     20 C          66.6701   93.7142   11.7130 C.3     1  UNL1        0.1716
     21 C          67.6420   94.7485    9.5369 C.ar    1  UNL1        0.1370
     22 C          67.5627   95.7583    8.4305 C.ar    1  UNL1        0.0367
     23 C          66.4323   96.7435    8.3939 C.ar    1  UNL1        0.0031
     24 C          65.3812   96.7190    9.4636 C.ar    1  UNL1       -0.0000
     25 C          65.4604   95.7092   10.5700 C.ar    1  UNL1        0.0012
     26 C          66.5909   94.7239   10.6066 C.ar    1  UNL1        0.0413
     27 C          68.6199   92.4219    8.9195 C.3     1  UNL1        0.2525
     28 O          68.7725   93.7632    9.5735 O.3     1  UNL1       -0.4717
     29 C          63.1757   86.2139    9.0712 C.3     1  UNL1        0.2267
     30 O          63.4560   85.7832   10.4804 O.3     1  UNL1       -0.4736
     31 C          63.2875   84.3452   10.8728 C.ar    1  UNL1        0.1398
     32 C          63.5706   83.2584    9.8786 C.ar    1  UNL1        0.0367
     33 C          63.4021   81.8205   10.2710 C.ar    1  UNL1        0.0001
     34 C          62.9505   81.4694   11.6577 C.ar    1  UNL1       -0.0086
     35 C          62.6674   82.5563   12.6519 C.ar    1  UNL1        0.0469
     36 C          62.8360   83.9942   12.2595 C.ar    1  UNL1        0.0511
     37 N          62.2159   82.2052   14.0386 N.pl3   1  UNL1       -0.3059
     38 C          62.0474   80.7674   14.4310 C.3     1  UNL1        0.0912
     39 C          62.3304   79.6804   13.4367 C.3     1  UNL1        0.0261
     40 C          62.7820   80.0315   12.0501 C.3     1  UNL1        0.0294
     41 C          61.9328   83.2921   15.0328 C.3     1  UNL1        0.1124
     42 C          63.0432   83.8447   15.8764 C.3     1  UNL1        0.1182
     43 N          63.4016   85.2985   15.7858 N.am    1  UNL1       -0.2404
     44 C          64.3043   85.9220   14.7629 C.3     1  UNL1        0.1442
     45 C          64.3808   87.3928   15.0472 C.3     1  UNL1        0.2316
     46 O          63.5254   87.6784   16.2459 O.3     1  UNL1       -0.4326
     47 C          62.9203   86.3840   16.7024 C.2     1  UNL1        0.4051
     48 O          61.9961   86.2063   17.8704 O.2     1  UNL1       -0.2262
@<TRIPOS>BOND
     1    27    28    1
     2    28    21    1
     3    21    22   ar
     4    22    23   ar
     5    23    24   ar
     6    24    25   ar
     7    25    26   ar
     8    26    20    1
     9    20    19    1
    10    19    18    1
    11    18    17    1
    12    17    16    1
    13    16    15    1
    14    15     9    1
    15     9    10   ar
    16    10    11   ar
    17    11    12   ar
    18    12     1    1
    19     1     2   am
    20     2     3    2
    21     2     4    1
    22     4     5    1
    23     5     6    1
    24     6     7    1
    25     7    29    1
    26    29    30    1
    27    30    31    1
    28    31    32   ar
    29    32    33   ar
    30    33    34   ar
    31    34    35   ar
    32    35    36   ar
    33    35    37    1
    34    37    41    1
    35    41    42    1
    36    42    43    1
    37    43    44    1
    38    44    45    1
    39    45    46    1
    40    46    47    1
    41    47    48    2
    42    37    38    1
    43    38    39    1
    44    39    40    1
    45    12    13   ar
    46    13    14   ar
    47    26    21   ar
    48    14     9   ar
    49     7     1    1
    50    36    31   ar
    51    47    43   am
    52    40    34    1
    53     5     8    1
@<TRIPOS>MOLECULE
*****
 48 53 0 0 0
SMALL
GASTEIGER

@<TRIPOS>ATOM
      1 N          62.6903   86.1689   11.9543 N.am    1  UNL1       -0.2541
      2 C          62.8997   84.7320   12.3304 C.2     1  UNL1        0.2456
      3 O          62.2781   83.6430   11.5072 O.2     1  UNL1       -0.2730
      4 C          63.7308   84.3841   13.5297 C.3     1  UNL1        0.1555
      5 N          64.3525   85.4731   14.3529 N.3     1  UNL1       -0.2883
      6 C          64.1430   86.9099   13.9768 C.3     1  UNL1        0.0932
      7 C          63.3120   87.2578   12.7775 C.3     1  UNL1        0.1390
      8 H          65.3594   85.3102   14.3445 H       1  UNL1        0.1237
      9 C          60.1971   87.2126    8.3565 C.ar    1  UNL1        0.1386
     10 C          59.7915   87.6982    9.7165 C.ar    1  UNL1        0.0382
     11 C          60.6226   87.3503   10.9157 C.ar    1  UNL1        0.0180
     12 C          61.8592   86.5168   10.7550 C.ar    1  UNL1        0.0542
     13 C          62.2648   86.0311    9.3950 C.ar    1  UNL1        0.0180
     14 C          61.4337   86.3790    8.1958 C.ar    1  UNL1        0.0382
     15 O          59.3660   87.5605    7.1572 O.3     1  UNL1       -0.4754
     16 C          58.9105   88.9737    6.9448 C.3     1  UNL1        0.2080
     17 C          59.5661   89.8236    5.8969 C.3     1  UNL1        0.0794
     18 C          58.8556   91.0292    5.3566 C.3     1  UNL1        0.1465
     19 O          59.6446   92.1904    4.8283 O.3     1  UNL1       -0.3488
     20 C          59.6488   92.4874    3.3580 C.3     1  UNL1        0.1716
     21 C          60.9210   94.1667    1.8377 C.ar    1  UNL1        0.1370
     22 C          62.1869   94.6089    1.1654 C.ar    1  UNL1        0.0367
     23 C          63.4466   93.8138    1.3413 C.ar    1  UNL1        0.0031
     24 C          63.4404   92.5766    2.1894 C.ar    1  UNL1       -0.0000
     25 C          62.1744   92.1345    2.8616 C.ar    1  UNL1        0.0012
     26 C          60.9147   92.9295    2.6858 C.ar    1  UNL1        0.0413
     27 C          59.4106   95.6957    0.3778 C.3     1  UNL1        0.2525
     28 O          59.6612   94.9618    1.6618 O.3     1  UNL1       -0.4717
     29 C          63.1026   88.6948   12.4014 C.3     1  UNL1        0.2267
     30 O          62.6678   89.6861   13.4397 O.3     1  UNL1       -0.4736
     31 C          63.6927   90.4799   14.1946 C.ar    1  UNL1        0.1398
     32 C          63.5056   90.7464   15.6587 C.ar    1  UNL1        0.0367
     33 C          64.5305   91.5401   16.4135 C.ar    1  UNL1        0.0001
     34 C          65.7425   92.0672   15.7040 C.ar    1  UNL1       -0.0086
     35 C          65.9296   91.8006   14.2399 C.ar    1  UNL1        0.0469
     36 C          64.9047   91.0069   13.4851 C.ar    1  UNL1        0.0511
     37 N          67.1415   92.3277   13.5304 N.pl3   1  UNL1       -0.3059
     38 C          68.1664   93.1214   14.2852 C.3     1  UNL1        0.0912
     39 C          67.9793   93.3880   15.7494 C.3     1  UNL1        0.0261
     40 C          66.7673   92.8609   16.4589 C.3     1  UNL1        0.0294
     41 C          67.3286   92.0611   12.0662 C.3     1  UNL1        0.1124
     42 C          66.3995   92.6826   11.0660 C.3     1  UNL1        0.1182
     43 N          66.8638   93.8360   10.2267 N.am    1  UNL1       -0.2404
     44 C          66.4716   95.2724   10.4080 C.3     1  UNL1        0.1442
     45 C          67.1671   96.0796    9.3522 C.3     1  UNL1        0.2316
     46 O          67.9892   95.1420    8.5184 O.3     1  UNL1       -0.4326
     47 C          67.8017   93.7554    9.0589 C.2     1  UNL1        0.4051
     48 O          68.4401   92.5073    8.5253 O.2     1  UNL1       -0.2262
@<TRIPOS>BOND
     1    27    28    1
     2    28    21    1
     3    21    22   ar
     4    22    23   ar
     5    23    24   ar
     6    24    25   ar
     7    25    26   ar
     8    26    20    1
     9    20    19    1
    10    19    18    1
    11    18    17    1
    12    17    16    1
    13    16    15    1
    14    15     9    1
    15     9    10   ar
    16    10    11   ar
    17    11    12   ar
    18    12     1    1
    19     1     2   am
    20     2     3    2
    21     2     4    1
    22     4     5    1
    23     5     6    1
    24     6     7    1
    25     7    29    1
    26    29    30    1
    27    30    31    1
    28    31    32   ar
    29    32    33   ar
    30    33    34   ar
    31    34    35   ar
    32    35    36   ar
    33    35    37    1
    34    37    41    1
    35    41    42    1
    36    42    43    1
    37    43    44    1
    38    44    45    1
    39    45    46    1
    40    46    47    1
    41    47    48    2
    42    37    38    1
    43    38    39    1
    44    39    40    1
    45    12    13   ar
    46    13    14   ar
    47    26    21   ar
    48    14     9   ar
    49     7     1    1
    50    36    31   ar
    51    47    43   am
    52    40    34    1
    53     5     8    1
