@<TRIPOS>MOLECULE
*****
 24 27 0 0 0
SMALL
GASTEIGER

@<TRIPOS>ATOM
      1 C          61.5208   86.2199   10.3243 C.2     1  UNL1        0.1655
      2 C          62.0037   85.5999   11.6021 C.2     1  UNL1        0.0374
      3 C          63.0343   84.5107   11.5645 C.2     1  UNL1        0.0149
      4 C          63.6961   83.7171   12.6519 C.2     1  UNL1        0.0926
      5 C          64.6529   82.7575   12.0088 C.2     1  UNL1        0.1000
      6 N          64.5824   82.9579   10.5239 N.2     1  UNL1       -0.2617
      7 C          63.5821   84.0414   10.2493 C.3     1  UNL1        0.1502
      8 C          63.0992   84.6613    8.9717 C.2     1  UNL1        0.0349
      9 C          62.0686   85.7506    9.0091 C.2     1  UNL1        0.1718
     10 F          61.5858   86.3705    7.7315 F       1  UNL1       -0.2012
     11 C          60.8009   88.6560    9.7794 C.3     1  UNL1        0.2526
     12 O          60.4902   87.3091   10.3619 O.2     1  UNL1       -0.4692
     13 C          63.4452   83.8585   14.1240 C.2     1  UNL1        0.3425
     14 O          63.4766   82.6484   15.0098 O.2     1  UNL1       -0.2448
     15 O          63.1628   85.2100   14.7103 O.3     1  UNL1       -0.4454
     16 C          64.2896   86.1658   14.9690 C.3     1  UNL1        0.2087
     17 C          64.0020   87.6201   15.1973 C.3     1  UNL1        0.0445
     18 C          63.3697   88.0669   16.4820 C.3     1  UNL1        0.0210
     19 C          63.0821   89.5213   16.7103 C.3     1  UNL1        0.0722
     20 N          63.4269   90.5288   15.6539 N.3     1  UNL1       -0.2727
     21 C          64.0593   90.0820   14.3692 C.3     1  UNL1        0.0722
     22 C          64.3468   88.6276   14.1409 C.3     1  UNL1        0.0210
     23 C          63.6034   89.7429   15.4834 C.3     1  UNL1        0.0722
     24 C          63.8635   88.4279   15.2769 C.3     1  UNL1        0.0210
@<TRIPOS>BOND
     1    11    12    1
     2    12     1    1
     3     1     2    2
     4     2     3    1
     5     3     4    2
     6     4    13    1
     7    13    14    2
     8    13    15    1
     9    15    16    1
    10    16    17    1
    11    17    18    1
    12    18    19    1
    13    19    20    1
    14    20    21    1
    15    21    22    1
    16    20    23    1
    17    23    24    1
    18     4     5    1
    19     5     6    2
    20     6     7    1
    21     7     8    1
    22     8     9    2
    23     9    10    1
    24     9     1    1
    25     7     3    1
    26    22    17    1
    27    24    17    1
@<TRIPOS>MOLECULE
*****
 24 27 0 0 0
SMALL
GASTEIGER

@<TRIPOS>ATOM
      1 C          62.3095   85.7659   10.0112 C.2     1  UNL1        0.1655
      2 C          62.3435   85.6987   11.5093 C.2     1  UNL1        0.0374
      3 C          63.1011   84.5999   12.1938 C.2     1  UNL1        0.0149
      4 C          63.3121   84.2784   13.6437 C.2     1  UNL1        0.0926
      5 C          64.1662   83.0480   13.7262 C.2     1  UNL1        0.1000
      6 N          64.4829   82.6091   12.3273 N.2     1  UNL1       -0.2617
      7 C          63.8247   83.5681   11.3802 C.3     1  UNL1        0.1502
      8 C          63.7907   83.6353    9.8821 C.2     1  UNL1        0.0349
      9 C          63.0331   84.7342    9.1976 C.2     1  UNL1        0.1718
     10 F          62.9992   84.8013    7.6995 F       1  UNL1       -0.2012
     11 C          60.2997   86.5498    8.5634 C.3     1  UNL1        0.2526
     12 O          61.5520   86.8648    9.3267 O.2     1  UNL1       -0.4692
     13 C          62.7652   85.0516   14.8069 C.2     1  UNL1        0.3425
     14 O          61.4959   84.6083   15.4719 O.2     1  UNL1       -0.2448
     15 O          63.4875   86.2682   15.3050 O.3     1  UNL1       -0.4454
     16 C          64.4422   86.9949   14.4046 C.3     1  UNL1        0.2087
     17 C          64.2131   88.4411   14.0793 C.3     1  UNL1        0.0445
     18 C          63.4922   88.8215   12.8201 C.3     1  UNL1        0.0210
     19 C          63.2631   90.2677   12.4948 C.3     1  UNL1        0.0722
     20 N          63.7549   91.3336   13.4287 N.3     1  UNL1       -0.2727
     21 C          64.4757   90.9531   14.6879 C.3     1  UNL1        0.0722
     22 C          64.7048   89.5069   15.0132 C.3     1  UNL1        0.0210
     23 C          63.9039   90.5545   13.6494 C.3     1  UNL1        0.0722
     24 C          64.1111   89.2468   13.9437 C.3     1  UNL1        0.0210
@<TRIPOS>BOND
     1    11    12    1
     2    12     1    1
     3     1     2    2
     4     2     3    1
     5     3     4    2
     6     4    13    1
     7    13    14    2
     8    13    15    1
     9    15    16    1
    10    16    17    1
    11    17    18    1
    12    18    19    1
    13    19    20    1
    14    20    21    1
    15    21    22    1
    16    20    23    1
    17    23    24    1
    18     4     5    1
    19     5     6    2
    20     6     7    1
    21     7     8    1
    22     8     9    2
    23     9    10    1
    24     9     1    1
    25     7     3    1
    26    22    17    1
    27    24    17    1
@<TRIPOS>MOLECULE
*****
 24 27 0 0 0
SMALL
GASTEIGER

@<TRIPOS>ATOM
      1 C          63.5448   83.9343   12.9143 C.2     1  UNL1        0.1655
      2 C          62.8239   85.0849   12.2767 C.2     1  UNL1        0.0374
      3 C          62.7575   85.1928   10.7821 C.2     1  UNL1        0.0149
      4 C          62.1230   86.2061    9.8761 C.2     1  UNL1        0.0926
      5 C          62.3853   85.7897    8.4592 C.2     1  UNL1        0.1000
      6 N          63.1819   84.5191    8.4894 N.2     1  UNL1       -0.2617
      7 C          63.4119   84.1502    9.9250 C.3     1  UNL1        0.1502
      8 C          64.1328   82.9996   10.5625 C.2     1  UNL1        0.0349
      9 C          64.1992   82.8916   12.0572 C.2     1  UNL1        0.1718
     10 F          64.9201   81.7410   12.6948 F       1  UNL1       -0.2012
     11 C          62.3705   84.0157   15.2304 C.3     1  UNL1        0.2526
     12 O          63.6112   83.8263   14.4089 O.2     1  UNL1       -0.4692
     13 C          61.3601   87.4222   10.3109 C.2     1  UNL1        0.3425
     14 O          60.5276   87.3793   11.5579 O.2     1  UNL1       -0.2448
     15 O          61.4298   88.6813    9.4986 O.3     1  UNL1       -0.4454
     16 C          61.3263   90.0166   10.1743 C.3     1  UNL1        0.2087
     17 C          62.5083   90.5808   10.9054 C.3     1  UNL1        0.0445
     18 C          62.7733   90.1788   12.3260 C.3     1  UNL1        0.0210
     19 C          63.9554   90.7430   13.0570 C.3     1  UNL1        0.0722
     20 N          64.8724   91.7092   12.3674 N.3     1  UNL1       -0.2727
     21 C          64.6073   92.1112   10.9468 C.3     1  UNL1        0.0722
     22 C          63.4253   91.5470   10.2158 C.3     1  UNL1        0.0210
     23 C          64.2374   91.4266   11.9260 C.3     1  UNL1        0.0722
     24 C          63.1686   90.9165   11.2649 C.3     1  UNL1        0.0210
@<TRIPOS>BOND
     1    11    12    1
     2    12     1    1
     3     1     2    2
     4     2     3    1
     5     3     4    2
     6     4    13    1
     7    13    14    2
     8    13    15    1
     9    15    16    1
    10    16    17    1
    11    17    18    1
    12    18    19    1
    13    19    20    1
    14    20    21    1
    15    21    22    1
    16    20    23    1
    17    23    24    1
    18     4     5    1
    19     5     6    2
    20     6     7    1
    21     7     8    1
    22     8     9    2
    23     9    10    1
    24     9     1    1
    25     7     3    1
    26    22    17    1
    27    24    17    1
@<TRIPOS>MOLECULE
*****
 24 27 0 0 0
SMALL
GASTEIGER

@<TRIPOS>ATOM
      1 C          63.9636   86.1557   14.8949 C.2     1  UNL1        0.1655
      2 C          63.9359   85.5134   13.5396 C.2     1  UNL1        0.0374
      3 C          63.2991   84.1671   13.3605 C.2     1  UNL1        0.0149
      4 C          63.1225   83.2928   12.1546 C.2     1  UNL1        0.0926
      5 C          62.4042   82.0484   12.5854 C.2     1  UNL1        0.1000
      6 N          62.1369   82.1537   14.0576 N.2     1  UNL1       -0.2617
      7 C          62.6900   83.4631   14.5367 C.3     1  UNL1        0.1502
      8 C          62.7177   84.1054   15.8920 C.2     1  UNL1        0.0349
      9 C          63.3544   85.4517   16.0711 C.2     1  UNL1        0.1718
     10 F          63.3821   86.0940   17.4263 F       1  UNL1       -0.2012
     11 C          64.1686   88.6556   14.2180 C.3     1  UNL1        0.2526
     12 O          64.6003   87.5019   15.0740 O.2     1  UNL1       -0.4692
     13 C          63.5832   83.6076   10.7623 C.2     1  UNL1        0.3425
     14 O          64.6210   82.7480   10.1034 O.2     1  UNL1       -0.2448
     15 O          63.0062   84.7819   10.0288 O.3     1  UNL1       -0.4454
     16 C          61.7391   85.4209   10.5148 C.3     1  UNL1        0.2087
     17 C          61.1598   86.5924    9.7787 C.3     1  UNL1        0.0445
     18 C          61.5231   87.9892   10.1873 C.3     1  UNL1        0.0210
     19 C          60.9437   89.1607    9.4512 C.3     1  UNL1        0.0722
     20 N          60.0009   88.9353    8.3064 N.3     1  UNL1       -0.2727
     21 C          59.6376   87.5385    7.8978 C.3     1  UNL1        0.0722
     22 C          60.2170   86.3671    8.6340 C.3     1  UNL1        0.0210
     23 C          60.2930   88.2621    8.6796 C.3     1  UNL1        0.0722
     24 C          60.8169   87.2028    9.3452 C.3     1  UNL1        0.0210
@<TRIPOS>BOND
     1    11    12    1
     2    12     1    1
     3     1     2    2
     4     2     3    1
     5     3     4    2
     6     4    13    1
     7    13    14    2
     8    13    15    1
     9    15    16    1
    10    16    17    1
    11    17    18    1
    12    18    19    1
    13    19    20    1
    14    20    21    1
    15    21    22    1
    16    20    23    1
    17    23    24    1
    18     4     5    1
    19     5     6    2
    20     6     7    1
    21     7     8    1
    22     8     9    2
    23     9    10    1
    24     9     1    1
    25     7     3    1
    26    22    17    1
    27    24    17    1
@<TRIPOS>MOLECULE
*****
 24 27 0 0 0
SMALL
GASTEIGER

@<TRIPOS>ATOM
      1 C          64.0492   90.6762   15.0611 C.2     1  UNL1        0.1655
      2 C          63.1121   90.3078   13.9492 C.2     1  UNL1        0.0374
      3 C          63.3770   90.7908   12.5540 C.2     1  UNL1        0.0149
      4 C          62.6365   90.5906   11.2650 C.2     1  UNL1        0.0926
      5 C          63.3808   91.3183   10.1850 C.2     1  UNL1        0.1000
      6 N          64.5813   91.9683   10.8065 N.2     1  UNL1       -0.2617
      7 C          64.5790   91.6423   12.2707 C.3     1  UNL1        0.1502
      8 C          65.5160   92.0107   13.3825 C.2     1  UNL1        0.0349
      9 C          65.2512   91.5277   14.7777 C.2     1  UNL1        0.1718
     10 F          66.1882   91.8961   15.8895 F       1  UNL1       -0.2012
     11 C          63.1064   88.8735   16.6769 C.3     1  UNL1        0.2526
     12 O          63.7843   90.1932   16.4562 O.2     1  UNL1       -0.4692
     13 C          61.3735   89.8013   11.0872 C.2     1  UNL1        0.3425
     14 O          60.2857   90.3180   10.1929 O.2     1  UNL1       -0.2448
     15 O          61.1982   88.4952   11.8038 O.3     1  UNL1       -0.4454
     16 C          60.6700   87.3003   11.0667 C.3     1  UNL1        0.2087
     17 C          61.6216   86.3026   10.4760 C.3     1  UNL1        0.0445
     18 C          62.1542   85.1830   11.3202 C.3     1  UNL1        0.0210
     19 C          63.1058   84.1853   10.7294 C.3     1  UNL1        0.0722
     20 N          63.5248   84.3072    9.2943 N.3     1  UNL1       -0.2727
     21 C          62.9922   85.4269    8.4500 C.3     1  UNL1        0.0722
     22 C          62.0406   86.4245    9.0408 C.3     1  UNL1        0.0210
     23 C          63.0012   84.8779    9.5738 C.3     1  UNL1        0.0722
     24 C          62.1408   85.7801   10.1079 C.3     1  UNL1        0.0210
@<TRIPOS>BOND
     1    11    12    1
     2    12     1    1
     3     1     2    2
     4     2     3    1
     5     3     4    2
     6     4    13    1
     7    13    14    2
     8    13    15    1
     9    15    16    1
    10    16    17    1
    11    17    18    1
    12    18    19    1
    13    19    20    1
    14    20    21    1
    15    21    22    1
    16    20    23    1
    17    23    24    1
    18     4     5    1
    19     5     6    2
    20     6     7    1
    21     7     8    1
    22     8     9    2
    23     9    10    1
    24     9     1    1
    25     7     3    1
    26    22    17    1
    27    24    17    1
@<TRIPOS>MOLECULE
*****
 24 27 0 0 0
SMALL
GASTEIGER

@<TRIPOS>ATOM
      1 C          66.7619   92.4268   13.3945 C.2     1  UNL1        0.1655
      2 C          65.8502   91.5513   14.2022 C.2     1  UNL1        0.0374
      3 C          64.5838   91.0247   13.5948 C.2     1  UNL1        0.0149
      4 C          63.4974   90.1471   14.1421 C.2     1  UNL1        0.0926
      5 C          62.4713   89.9535   13.0653 C.2     1  UNL1        0.1000
      6 N          62.9235   90.7115   11.8525 N.2     1  UNL1       -0.2617
      7 C          64.2291   91.3736   12.1797 C.3     1  UNL1        0.1502
      8 C          65.1408   92.2490   11.3720 C.2     1  UNL1        0.0349
      9 C          66.4072   92.7756   11.9794 C.2     1  UNL1        0.1718
     10 F          67.3189   93.6511   11.1716 F       1  UNL1       -0.2012
     11 C          68.0072   93.5570   15.3749 C.3     1  UNL1        0.2526
     12 O          68.0283   92.9534   14.0018 O.2     1  UNL1       -0.4692
     13 C          63.4462   89.5652   15.5237 C.2     1  UNL1        0.3425
     14 O          63.2222   90.4599   16.7065 O.2     1  UNL1       -0.2448
     15 O          63.6191   88.0885   15.7224 O.3     1  UNL1       -0.4454
     16 C          64.4835   87.3012   14.7827 C.3     1  UNL1        0.2087
     17 C          64.0456   85.9431   14.3204 C.3     1  UNL1        0.0445
     18 C          63.3692   85.7854   12.9909 C.3     1  UNL1        0.0210
     19 C          62.9313   84.4272   12.5287 C.3     1  UNL1        0.0722
     20 N          63.1699   83.2268   13.3960 N.3     1  UNL1       -0.2727
     21 C          63.8463   83.3846   14.7255 C.3     1  UNL1        0.0722
     22 C          64.2842   84.7428   15.1877 C.3     1  UNL1        0.0210
     23 C          63.4275   83.9507   13.6918 C.3     1  UNL1        0.0722
     24 C          63.8235   85.1787   14.1099 C.3     1  UNL1        0.0210
@<TRIPOS>BOND
     1    11    12    1
     2    12     1    1
     3     1     2    2
     4     2     3    1
     5     3     4    2
     6     4    13    1
     7    13    14    2
     8    13    15    1
     9    15    16    1
    10    16    17    1
    11    17    18    1
    12    18    19    1
    13    19    20    1
    14    20    21    1
    15    21    22    1
    16    20    23    1
    17    23    24    1
    18     4     5    1
    19     5     6    2
    20     6     7    1
    21     7     8    1
    22     8     9    2
    23     9    10    1
    24     9     1    1
    25     7     3    1
    26    22    17    1
    27    24    17    1
@<TRIPOS>MOLECULE
*****
 24 27 0 0 0
SMALL
GASTEIGER

@<TRIPOS>ATOM
      1 C          64.3106   89.5488   14.6301 C.2     1  UNL1        0.1655
      2 C          64.2996   88.0538   14.5071 C.2     1  UNL1        0.0374
      3 C          63.7050   87.2158   15.5999 C.2     1  UNL1        0.0149
      4 C          63.5528   85.7318   15.7567 C.2     1  UNL1        0.0926
      5 C          62.8752   85.4715   17.0694 C.2     1  UNL1        0.1000
      6 N          62.6086   86.7946   17.7238 N.2     1  UNL1       -0.2617
      7 C          63.1215   87.8726   16.8156 C.3     1  UNL1        0.1502
      8 C          63.1325   89.3675   16.9386 C.2     1  UNL1        0.0349
      9 C          63.7271   90.2056   15.8458 C.2     1  UNL1        0.1718
     10 F          63.7381   91.7005   15.9688 F       1  UNL1       -0.2012
     11 C          64.0101   91.1434   12.6011 C.3     1  UNL1        0.2526
     12 O          64.9052   90.3868   13.5373 O.2     1  UNL1       -0.4692
     13 C          63.9998   84.6909   14.7735 C.2     1  UNL1        0.3425
     14 O          64.5077   83.3668   15.2620 O.2     1  UNL1       -0.2448
     15 O          63.9387   84.9741   13.3018 O.3     1  UNL1       -0.4454
     16 C          62.8024   84.4393   12.4815 C.3     1  UNL1        0.2087
     17 C          62.4704   85.0674   11.1604 C.3     1  UNL1        0.0445
     18 C          63.2033   84.6425    9.9226 C.3     1  UNL1        0.0210
     19 C          62.8712   85.2707    8.6015 C.3     1  UNL1        0.0722
     20 N          61.8062   86.3237    8.5184 N.3     1  UNL1       -0.2727
     21 C          61.0733   86.7486    9.7563 C.3     1  UNL1        0.0722
     22 C          61.4054   86.1205   11.0773 C.3     1  UNL1        0.0210
     23 C          61.9533   86.0083    9.2645 C.3     1  UNL1        0.0722
     24 C          62.2535   85.4403   10.4591 C.3     1  UNL1        0.0210
@<TRIPOS>BOND
     1    11    12    1
     2    12     1    1
     3     1     2    2
     4     2     3    1
     5     3     4    2
     6     4    13    1
     7    13    14    2
     8    13    15    1
     9    15    16    1
    10    16    17    1
    11    17    18    1
    12    18    19    1
    13    19    20    1
    14    20    21    1
    15    21    22    1
    16    20    23    1
    17    23    24    1
    18     4     5    1
    19     5     6    2
    20     6     7    1
    21     7     8    1
    22     8     9    2
    23     9    10    1
    24     9     1    1
    25     7     3    1
    26    22    17    1
    27    24    17    1
@<TRIPOS>MOLECULE
*****
 24 27 0 0 0
SMALL
GASTEIGER

@<TRIPOS>ATOM
      1 C          63.9512   89.3840   14.1819 C.2     1  UNL1        0.1655
      2 C          63.1527   88.9761   12.9794 C.2     1  UNL1        0.0374
      3 C          63.1092   89.8642   11.7714 C.2     1  UNL1        0.0149
      4 C          62.4136   89.7273   10.4495 C.2     1  UNL1        0.0926
      5 C          62.7387   90.9388    9.6270 C.2     1  UNL1        0.1000
      6 N          63.6353   91.8244   10.4405 N.2     1  UNL1       -0.2617
      7 C          63.8643   91.1603   11.7658 C.3     1  UNL1        0.1502
      8 C          64.6628   91.5683   12.9683 C.2     1  UNL1        0.0349
      9 C          64.7062   90.6802   14.1764 C.2     1  UNL1        0.1718
     10 F          65.5047   91.0882   15.3788 F       1  UNL1       -0.2012
     11 C          63.1730   88.8332   16.5987 C.3     1  UNL1        0.2526
     12 O          63.9947   88.4959   15.3899 O.2     1  UNL1       -0.4692
     13 C          61.5453   88.5803   10.0248 C.2     1  UNL1        0.3425
     14 O          60.0690   88.7813    9.8510 O.2     1  UNL1       -0.2448
     15 O          62.1533   87.2322    9.7738 O.3     1  UNL1       -0.4454
     16 C          61.6901   86.0422   10.5608 C.3     1  UNL1        0.2087
     17 C          62.6489   84.9328   10.8771 C.3     1  UNL1        0.0445
     18 C          62.9312   84.5697   12.3049 C.3     1  UNL1        0.0210
     19 C          63.8900   83.4603   12.6211 C.3     1  UNL1        0.0722
     20 N          64.5666   82.7142   11.5096 N.3     1  UNL1       -0.2727
     21 C          64.2843   83.0773   10.0818 C.3     1  UNL1        0.0722
     22 C          63.3255   84.1867    9.7656 C.3     1  UNL1        0.0210
     23 C          64.0489   83.3145   11.2871 C.3     1  UNL1        0.0722
     24 C          63.1819   84.3176   11.0010 C.3     1  UNL1        0.0210
@<TRIPOS>BOND
     1    11    12    1
     2    12     1    1
     3     1     2    2
     4     2     3    1
     5     3     4    2
     6     4    13    1
     7    13    14    2
     8    13    15    1
     9    15    16    1
    10    16    17    1
    11    17    18    1
    12    18    19    1
    13    19    20    1
    14    20    21    1
    15    21    22    1
    16    20    23    1
    17    23    24    1
    18     4     5    1
    19     5     6    2
    20     6     7    1
    21     7     8    1
    22     8     9    2
    23     9    10    1
    24     9     1    1
    25     7     3    1
    26    22    17    1
    27    24    17    1
@<TRIPOS>MOLECULE
*****
 24 27 0 0 0
SMALL
GASTEIGER

@<TRIPOS>ATOM
      1 C          64.1799   86.9313   14.9728 C.2     1  UNL1        0.1655
      2 C          64.6304   88.2681   14.4629 C.2     1  UNL1        0.0374
      3 C          64.2633   89.5174   15.2074 C.2     1  UNL1        0.0149
      4 C          64.5617   90.9644   14.9485 C.2     1  UNL1        0.0926
      5 C          63.9285   91.7714   16.0430 C.2     1  UNL1        0.1000
      6 N          63.2387   90.8230   16.9783 N.2     1  UNL1       -0.2617
      7 C          63.4456   89.4300   16.4619 C.3     1  UNL1        0.1502
      8 C          62.9950   88.0933   16.9718 C.2     1  UNL1        0.0349
      9 C          63.3622   86.8438   16.2273 C.2     1  UNL1        0.1718
     10 F          62.9116   85.5071   16.7373 F       1  UNL1       -0.2012
     11 C          63.5128   84.9628   13.4140 C.3     1  UNL1        0.2526
     12 O          64.5470   85.6819   14.2283 O.2     1  UNL1       -0.4692
     13 C          65.3543   91.5089   13.7973 C.2     1  UNL1        0.3425
     14 O          66.8257   91.2332   13.7026 O.2     1  UNL1       -0.2448
     15 O          64.6755   92.3292   12.7407 O.3     1  UNL1       -0.4454
     16 C          64.9985   92.1038   11.2933 C.3     1  UNL1        0.2087
     17 C          66.1075   92.8767   10.6432 C.3     1  UNL1        0.0445
     18 C          67.3632   92.1741   10.2193 C.3     1  UNL1        0.0210
     19 C          68.4721   92.9471    9.5692 C.3     1  UNL1        0.0722
     20 N          68.3254   94.4227    9.3429 N.3     1  UNL1       -0.2727
     21 C          67.0697   95.1252    9.7667 C.3     1  UNL1        0.0722
     22 C          65.9607   94.3522   10.4169 C.3     1  UNL1        0.0210
     23 C          67.6906   94.0414    9.7029 C.3     1  UNL1        0.0722
     24 C          66.6878   93.3426   10.2908 C.3     1  UNL1        0.0210
@<TRIPOS>BOND
     1    11    12    1
     2    12     1    1
     3     1     2    2
     4     2     3    1
     5     3     4    2
     6     4    13    1
     7    13    14    2
     8    13    15    1
     9    15    16    1
    10    16    17    1
    11    17    18    1
    12    18    19    1
    13    19    20    1
    14    20    21    1
    15    21    22    1
    16    20    23    1
    17    23    24    1
    18     4     5    1
    19     5     6    2
    20     6     7    1
    21     7     8    1
    22     8     9    2
    23     9    10    1
    24     9     1    1
    25     7     3    1
    26    22    17    1
    27    24    17    1
