@<TRIPOS>MOLECULE
*****
 51 56 0 0 0
SMALL
GASTEIGER

@<TRIPOS>ATOM
      1 N          61.1627   85.9821    8.5103 N.3     1  UNL1       -0.1862
      2 C          61.9833   84.8202    8.9863 C.3     1  UNL1        0.1775
      3 C          62.7783   84.9325   10.2533 C.2     1  UNL1        0.2452
      4 O          63.5989   83.7705   10.7293 O.2     1  UNL1       -0.2732
      5 N          62.7526   86.2066   11.0444 N.am    1  UNL1       -0.2541
      6 C          63.5476   86.3189   12.3115 C.3     1  UNL1        0.1577
      7 C          63.5219   87.5931   13.1025 C.2     1  UNL1        0.2445
      8 O          64.3169   87.7053   14.3696 O.2     1  UNL1       -0.2731
      9 N          62.7013   88.7550   12.6265 N.am    1  UNL1       -0.2705
     10 C          61.9063   88.6428   11.3595 C.3     1  UNL1        0.1359
     11 C          61.9320   87.3685   10.5684 C.3     1  UNL1        0.1908
     12 N          61.1370   87.2562    9.3014 N.am    1  UNL1       -0.1863
     13 C          60.3164   88.4182    8.8254 C.2     1  UNL1        0.3191
     14 O          60.2908   89.6924    9.6164 O.2     1  UNL1       -0.2512
     15 N          59.5215   88.3059    7.5583 N.am    1  UNL1       -0.2836
     16 H          59.5383   87.4696    7.0391 H       1  UNL1        0.1513
     17 C          60.3677   85.8698    7.2432 C.3     1  UNL1        0.1188
     18 C          61.8757   84.4649    5.6614 C.2     1  UNL1       -0.0034
     19 C          60.5571   84.6863    6.3414 C.2     1  UNL1       -0.0071
     20 C          64.3682   85.1570   12.7874 C.3     1  UNL1        0.0556
     21 C          63.6911   83.9177   13.2930 C.ar    1  UNL1       -0.0198
     22 C          62.4483   84.0285   14.1254 C.ar    1  UNL1       -0.0011
     23 C          61.7712   82.7891   14.6310 C.ar    1  UNL1        0.0363
     24 C          62.3370   81.4390   14.3040 C.ar    1  UNL1        0.1337
     25 O          61.6599   80.1996   14.8095 O.3     1  UNL1       -0.5055
     26 C          63.5799   81.3281   13.4715 C.ar    1  UNL1        0.0363
     27 C          64.2569   82.5675   12.9660 C.ar    1  UNL1       -0.0011
     28 H          60.8835   80.2688   15.3296 H       1  UNL1        0.2922
     29 C          62.6757   90.0292   13.4176 C.3     1  UNL1        0.1217
     30 C          63.8915   90.9064   13.4662 C.ar    1  UNL1        0.0135
     31 C          64.6790   91.0270   14.7372 C.ar    1  UNL1       -0.0012
     32 C          65.8947   91.9042   14.7859 C.ar    1  UNL1       -0.0002
     33 C          66.3230   92.6608   13.5636 C.ar    1  UNL1        0.0016
     34 C          65.5356   92.5402   12.2926 C.ar    1  UNL1        0.0214
     35 C          65.7141   93.1605   10.9386 C.ar    1  UNL1        0.0721
     36 C          64.6086   92.6667   10.0531 C.ar    1  UNL1        0.0805
     37 N          63.7469   91.7413   10.8599 N.ar    1  UNL1       -0.3241
     38 C          62.5266   91.0205   10.3688 C.3     1  UNL1        0.1305
     39 C          64.3198   91.6630   12.2439 C.ar    1  UNL1        0.0577
     40 C          66.8063   94.1083   10.5400 C.2     1  UNL1        0.2506
     41 O          68.2113   93.6083   10.3785 O.2     1  UNL1       -0.2699
     42 N          66.4936   95.5561   10.3030 N.am    1  UNL1       -0.2725
     43 C          67.5857   96.5039    9.9045 C.3     1  UNL1        0.1152
     44 C          65.0886   96.0560   10.4646 C.3     1  UNL1        0.1152
     45 C          58.7008   89.4678    7.0823 C.3     1  UNL1        0.1177
     46 C          59.2114   90.3438    5.9770 C.ar    1  UNL1       -0.0025
     47 C          58.2623   91.2219    5.2166 C.ar    1  UNL1       -0.0026
     48 C          58.7729   92.0979    4.1113 C.ar    1  UNL1       -0.0003
     49 C          60.2326   92.0959    3.7662 C.ar    1  UNL1       -0.0000
     50 C          61.1819   91.2178    4.5265 C.ar    1  UNL1       -0.0003
     51 C          60.6713   90.3418    5.6319 C.ar    1  UNL1       -0.0026
@<TRIPOS>BOND
     1    18    19    2
     2    19    17    1
     3    17     1    1
     4     1     2    1
     5     2     3    1
     6     3     4    2
     7     3     5   am
     8     5     6    1
     9     6    20    1
    10    20    21    1
    11    21    22   ar
    12    22    23   ar
    13    23    24   ar
    14    24    25    1
    15    24    26   ar
    16    26    27   ar
    17     6     7    1
    18     7     8    2
    19     7     9   am
    20     9    29    1
    21    29    30    1
    22    30    31   ar
    23    31    32   ar
    24    32    33   ar
    25    33    34   ar
    26    34    35   ar
    27    35    40    1
    28    40    41    2
    29    40    42   am
    30    42    43    1
    31    42    44    1
    32    35    36   ar
    33    36    37   ar
    34    37    38    1
    35    37    39   ar
    36     9    10    1
    37    11    10    1
    38    11    12    1
    39    12    13   am
    40    13    14    2
    41    13    15   am
    42    15    45    1
    43    45    46    1
    44    46    47   ar
    45    47    48   ar
    46    48    49   ar
    47    49    50   ar
    48    50    51   ar
    49    12     1    1
    50    51    46   ar
    51    11     5    1
    52    27    21   ar
    53    39    30   ar
    54    39    34   ar
    55    25    28    1
    56    15    16    1
@<TRIPOS>MOLECULE
*****
 51 56 0 0 0
SMALL
GASTEIGER

@<TRIPOS>ATOM
      1 N          62.1169   84.5044   10.4054 N.3     1  UNL1       -0.1862
      2 C          61.3387   84.4294    9.1253 C.3     1  UNL1        0.1775
      3 C          60.7959   85.6817    8.5030 C.2     1  UNL1        0.2452
      4 O          60.0177   85.6066    7.2228 O.2     1  UNL1       -0.2732
      5 N          61.0314   87.0090    9.1608 N.am    1  UNL1       -0.2541
      6 C          60.4886   88.2613    8.5385 C.3     1  UNL1        0.1577
      7 C          60.7241   89.5886    9.1963 C.2     1  UNL1        0.2445
      8 O          60.1813   90.8408    8.5741 O.2     1  UNL1       -0.2731
      9 N          61.5023   89.6636   10.4765 N.am    1  UNL1       -0.2705
     10 C          62.0450   88.4114   11.0988 C.3     1  UNL1        0.1359
     11 C          61.8096   87.0840   10.4409 C.3     1  UNL1        0.1908
     12 N          62.3523   85.8318   11.0632 N.am    1  UNL1       -0.1863
     13 C          63.1305   85.9068   12.3434 C.2     1  UNL1        0.3191
     14 O          63.3660   87.2341   13.0012 O.2     1  UNL1       -0.2512
     15 N          63.6733   84.6546   12.9657 N.am    1  UNL1       -0.2836
     16 H          63.5187   83.7834   12.5339 H       1  UNL1        0.1513
     17 C          62.6596   83.2522   11.0277 C.3     1  UNL1        0.1188
     18 C          63.3945   80.8502   10.3640 C.2     1  UNL1       -0.0034
     19 C          63.5384   82.3371   10.2275 C.2     1  UNL1       -0.0071
     20 C          59.7104   88.1862    7.2584 C.3     1  UNL1        0.0556
     21 C          59.5845   89.3992    6.3850 C.ar    1  UNL1       -0.0198
     22 C          60.7957   89.9590    5.6998 C.ar    1  UNL1       -0.0011
     23 C          60.6698   91.1720    4.8264 C.ar    1  UNL1        0.0363
     24 C          59.3327   91.8252    4.6382 C.ar    1  UNL1        0.1337
     25 O          59.2068   93.0382    3.7649 O.3     1  UNL1       -0.5055
     26 C          58.1214   91.2654    5.3235 C.ar    1  UNL1        0.0363
     27 C          58.2474   90.0524    6.1969 C.ar    1  UNL1       -0.0011
     28 H          59.9634   93.3879    3.3368 H       1  UNL1        0.2922
     29 C          61.7377   90.9910   11.1344 C.3     1  UNL1        0.1217
     30 C          63.1224   91.5651   11.1905 C.ar    1  UNL1        0.0135
     31 C          63.6535   92.3570   10.0326 C.ar    1  UNL1       -0.0012
     32 C          65.0381   92.9311   10.0887 C.ar    1  UNL1       -0.0002
     33 C          65.8916   92.7134   11.3027 C.ar    1  UNL1        0.0016
     34 C          65.3605   91.9215   12.4607 C.ar    1  UNL1        0.0214
     35 C          65.9655   91.5446   13.7805 C.ar    1  UNL1        0.0721
     36 C          64.9547   90.7375   14.5401 C.ar    1  UNL1        0.0805
     37 N          63.7252   90.6156   13.6897 N.ar    1  UNL1       -0.3241
     38 C          62.4658   89.8894   14.0596 C.3     1  UNL1        0.1305
     39 C          63.9759   91.3474   12.4046 C.ar    1  UNL1        0.0577
     40 C          67.3399   91.9105   14.2571 C.2     1  UNL1        0.2506
     41 O          68.5237   91.7094   13.3581 O.2     1  UNL1       -0.2699
     42 N          67.5305   92.4775   15.6327 N.am    1  UNL1       -0.2725
     43 C          68.9049   92.8435   16.1093 C.3     1  UNL1        0.1152
     44 C          66.3467   92.6786   16.5316 C.3     1  UNL1        0.1152
     45 C          64.4515   84.7296   14.2458 C.3     1  UNL1        0.1177
     46 C          63.9098   85.5075   15.4083 C.ar    1  UNL1       -0.0025
     47 C          64.2629   86.9562   15.5713 C.ar    1  UNL1       -0.0026
     48 C          63.7212   87.7340   16.7338 C.ar    1  UNL1       -0.0003
     49 C          62.8264   87.0632   17.7334 C.ar    1  UNL1       -0.0000
     50 C          62.4732   85.6144   17.5705 C.ar    1  UNL1       -0.0003
     51 C          63.0149   84.8366   16.4080 C.ar    1  UNL1       -0.0026
@<TRIPOS>BOND
     1    18    19    2
     2    19    17    1
     3    17     1    1
     4     1     2    1
     5     2     3    1
     6     3     4    2
     7     3     5   am
     8     5     6    1
     9     6    20    1
    10    20    21    1
    11    21    22   ar
    12    22    23   ar
    13    23    24   ar
    14    24    25    1
    15    24    26   ar
    16    26    27   ar
    17     6     7    1
    18     7     8    2
    19     7     9   am
    20     9    29    1
    21    29    30    1
    22    30    31   ar
    23    31    32   ar
    24    32    33   ar
    25    33    34   ar
    26    34    35   ar
    27    35    40    1
    28    40    41    2
    29    40    42   am
    30    42    43    1
    31    42    44    1
    32    35    36   ar
    33    36    37   ar
    34    37    38    1
    35    37    39   ar
    36     9    10    1
    37    11    10    1
    38    11    12    1
    39    12    13   am
    40    13    14    2
    41    13    15   am
    42    15    45    1
    43    45    46    1
    44    46    47   ar
    45    47    48   ar
    46    48    49   ar
    47    49    50   ar
    48    50    51   ar
    49    12     1    1
    50    51    46   ar
    51    11     5    1
    52    27    21   ar
    53    39    30   ar
    54    39    34   ar
    55    25    28    1
    56    15    16    1
@<TRIPOS>MOLECULE
*****
 51 56 0 0 0
SMALL
GASTEIGER

@<TRIPOS>ATOM
      1 N          62.4752   84.2622    9.3749 N.3     1  UNL1       -0.1862
      2 C          61.6711   84.3717    8.1134 C.3     1  UNL1        0.1775
      3 C          60.9266   85.6371    7.8060 C.2     1  UNL1        0.2452
      4 O          60.1225   85.7465    6.5444 O.2     1  UNL1       -0.2732
      5 N          60.9863   86.7930    8.7600 N.am    1  UNL1       -0.2541
      6 C          60.2418   88.0584    8.4526 C.3     1  UNL1        0.1577
      7 C          60.3014   89.2143    9.4066 C.2     1  UNL1        0.2445
      8 O          59.5570   90.4797    9.0992 O.2     1  UNL1       -0.2731
      9 N          61.1056   89.1049   10.6682 N.am    1  UNL1       -0.2705
     10 C          61.8500   87.8395   10.9756 C.3     1  UNL1        0.1359
     11 C          61.7904   86.6835   10.0215 C.3     1  UNL1        0.1908
     12 N          62.5348   85.4181   10.3289 N.am    1  UNL1       -0.1863
     13 C          63.3390   85.3087   11.5905 C.2     1  UNL1        0.3191
     14 O          63.3986   86.4646   12.5446 O.2     1  UNL1       -0.2512
     15 N          64.0834   84.0433   11.8979 N.am    1  UNL1       -0.2836
     16 H          64.0443   83.2846   11.2717 H       1  UNL1        0.1513
     17 C          63.2197   82.9968    9.6823 C.3     1  UNL1        0.1188
     18 C          63.0863   80.5481   10.5403 C.2     1  UNL1       -0.0034
     19 C          62.6103   81.9697   10.5899 C.2     1  UNL1       -0.0071
     20 C          59.4377   88.1679    7.1911 C.3     1  UNL1        0.0556
     21 C          59.4679   89.4357    6.3901 C.ar    1  UNL1       -0.0198
     22 C          58.1914   90.1642    6.0905 C.ar    1  UNL1       -0.0011
     23 C          58.2217   91.4321    5.2894 C.ar    1  UNL1        0.0363
     24 C          59.5284   91.9714    4.7880 C.ar    1  UNL1        0.1337
     25 O          59.5586   93.2393    3.9870 O.3     1  UNL1       -0.5055
     26 C          60.8050   91.2429    5.0876 C.ar    1  UNL1        0.0363
     27 C          60.7748   89.9751    5.8886 C.ar    1  UNL1       -0.0011
     28 H          58.7612   93.6943    3.7998 H       1  UNL1        0.2922
     29 C          61.1652   90.2608   11.6223 C.3     1  UNL1        0.1217
     30 C          62.2744   90.3463   12.6285 C.ar    1  UNL1        0.0135
     31 C          62.0913   89.7623   13.9980 C.ar    1  UNL1       -0.0012
     32 C          63.2004   89.8478   15.0042 C.ar    1  UNL1       -0.0002
     33 C          64.4926   90.5173   14.6410 C.ar    1  UNL1        0.0016
     34 C          64.6756   91.1014   13.2715 C.ar    1  UNL1        0.0214
     35 C          65.8284   91.8161   12.6311 C.ar    1  UNL1        0.0721
     36 C          65.4318   92.1723   11.2290 C.ar    1  UNL1        0.0805
     37 N          64.0339   91.6777   11.0030 N.ar    1  UNL1       -0.3241
     38 C          63.2423   91.8200    9.7369 C.3     1  UNL1        0.1305
     39 C          63.5666   91.0158   12.2653 C.ar    1  UNL1        0.0577
     40 C          67.1466   92.1211   13.2790 C.2     1  UNL1        0.2506
     41 O          68.4256   91.7684   12.5793 O.2     1  UNL1       -0.2699
     42 N          67.1855   92.7788   14.6265 N.am    1  UNL1       -0.2725
     43 C          68.5035   93.0838   15.2744 C.3     1  UNL1        0.1152
     44 C          65.9064   93.1315   15.3261 C.3     1  UNL1        0.1152
     45 C          64.8876   83.9338   13.1594 C.3     1  UNL1        0.1177
     46 C          64.3540   84.5027   14.4407 C.ar    1  UNL1       -0.0025
     47 C          63.2655   83.7863   15.1836 C.ar    1  UNL1       -0.0026
     48 C          62.7320   84.3553   16.4648 C.ar    1  UNL1       -0.0003
     49 C          63.2870   85.6406   17.0032 C.ar    1  UNL1       -0.0000
     50 C          64.3756   86.3571   16.2603 C.ar    1  UNL1       -0.0003
     51 C          64.9091   85.7881   14.9791 C.ar    1  UNL1       -0.0026
@<TRIPOS>BOND
     1    18    19    2
     2    19    17    1
     3    17     1    1
     4     1     2    1
     5     2     3    1
     6     3     4    2
     7     3     5   am
     8     5     6    1
     9     6    20    1
    10    20    21    1
    11    21    22   ar
    12    22    23   ar
    13    23    24   ar
    14    24    25    1
    15    24    26   ar
    16    26    27   ar
    17     6     7    1
    18     7     8    2
    19     7     9   am
    20     9    29    1
    21    29    30    1
    22    30    31   ar
    23    31    32   ar
    24    32    33   ar
    25    33    34   ar
    26    34    35   ar
    27    35    40    1
    28    40    41    2
    29    40    42   am
    30    42    43    1
    31    42    44    1
    32    35    36   ar
    33    36    37   ar
    34    37    38    1
    35    37    39   ar
    36     9    10    1
    37    11    10    1
    38    11    12    1
    39    12    13   am
    40    13    14    2
    41    13    15   am
    42    15    45    1
    43    45    46    1
    44    46    47   ar
    45    47    48   ar
    46    48    49   ar
    47    49    50   ar
    48    50    51   ar
    49    12     1    1
    50    51    46   ar
    51    11     5    1
    52    27    21   ar
    53    39    30   ar
    54    39    34   ar
    55    25    28    1
    56    15    16    1
