@<TRIPOS>MOLECULE
*****
 28 30 0 0 0
SMALL
GASTEIGER

@<TRIPOS>ATOM
      1 C          64.0271   89.5399   13.7247 C.ar    1  UNL1       -0.0059
      2 C          63.0468   89.3538   12.6047 C.ar    1  UNL1        0.0175
      3 C          62.9636   90.3696   11.5042 C.ar    1  UNL1        0.1000
      4 N          63.8609   91.5715   11.5236 N.ar    1  UNL1       -0.2294
      5 C          64.8412   91.7577   12.6435 C.ar    1  UNL1        0.1292
      6 C          64.9243   90.7419   13.7441 C.ar    1  UNL1        0.0073
      7 C          65.9047   90.9280   14.8640 C.3     1  UNL1        0.0337
      8 N          65.7384   92.9596   12.6629 N.pl3   1  UNL1       -0.2784
      9 H          65.8769   93.4570   13.5011 H       1  UNL1        0.1555
     10 C          66.4246   93.4037   11.4051 C.ar    1  UNL1        0.1653
     11 N          67.5328   92.6775   10.7018 N.ar    1  UNL1       -0.2217
     12 C          67.9161   93.4769    9.4919 C.ar    1  UNL1        0.1177
     13 C          67.0448   94.6972    9.4474 C.ar    1  UNL1        0.1194
     14 S          66.1230   94.6519   10.6299 S.2     1  UNL1       -0.0409
     15 C          67.0879   95.7737    8.4037 C.1     1  UNL1        0.1086
     16 N          67.1309   96.8502    7.3600 N.1     1  UNL1       -0.1903
     17 C          64.1103   88.5241   14.8252 C.3     1  UNL1        0.0991
     18 C          62.7857   80.8131   11.9038 C.3     1  UNL1        0.1122
     19 N          62.9728   82.2692   12.2114 N.am    1  UNL1       -0.2870
     20 C          63.3621   82.6996   13.5946 C.2     1  UNL1        0.3041
     21 O          63.5644   81.6737   14.6701 O.2     1  UNL1       -0.2526
     22 N          63.5492   84.1557   13.9022 N.am    1  UNL1       -0.2614
     23 C          63.3468   85.1815   12.8267 C.3     1  UNL1        0.1123
     24 C          63.5339   86.6377   13.1344 C.3     1  UNL1        0.0942
     25 N          63.9232   87.0680   14.5176 N.3     1  UNL1       -0.2660
     26 C          64.1255   86.0422   15.5931 C.3     1  UNL1        0.0942
     27 C          63.9385   84.5860   15.2854 C.3     1  UNL1        0.1123
     28 H          62.8400   82.9425   11.5055 H       1  UNL1        0.1510
@<TRIPOS>BOND
     1    18    19    1
     2    19    20   am
     3    20    21    2
     4    20    22   am
     5    22    23    1
     6    23    24    1
     7    24    25    1
     8    25    17    1
     9    17     1    1
    10     1     2   ar
    11     2     3   ar
    12     3     4   ar
    13     4     5   ar
    14     5     8    1
    15     8    10    1
    16    10    11   ar
    17    11    12   ar
    18    12    13   ar
    19    13    15    1
    20    15    16    3
    21    13    14   ar
    22     5     6   ar
    23     6     7    1
    24    25    26    1
    25    26    27    1
    26    27    22    1
    27     6     1   ar
    28    14    10   ar
    29    19    28    1
    30     8     9    1
@<TRIPOS>MOLECULE
*****
 28 30 0 0 0
SMALL
GASTEIGER

@<TRIPOS>ATOM
      1 C          62.3849   86.4923   10.8157 C.ar    1  UNL1       -0.0059
      2 C          62.2317   86.3108    9.3346 C.ar    1  UNL1        0.0175
      3 C          62.8087   85.0995    8.6638 C.ar    1  UNL1        0.1000
      4 N          63.5389   84.0698    9.4740 N.ar    1  UNL1       -0.2294
      5 C          63.6921   84.2514   10.9551 C.ar    1  UNL1        0.1292
      6 C          63.1151   85.4626   11.6259 C.ar    1  UNL1        0.0073
      7 C          63.2684   85.6442   13.1070 C.3     1  UNL1        0.0337
      8 N          64.4223   83.2217   11.7653 N.pl3   1  UNL1       -0.2784
      9 H          65.4064   83.1955   11.7564 H       1  UNL1        0.1555
     10 C          63.6532   82.2319   12.5891 C.ar    1  UNL1        0.1653
     11 N          64.2404   81.1197   13.4065 N.ar    1  UNL1       -0.2217
     12 C          63.1119   80.3810   14.0628 C.ar    1  UNL1        0.1177
     13 C          61.8271   81.0367   13.6510 C.ar    1  UNL1        0.1194
     14 S          62.1617   82.1806   12.7402 S.2     1  UNL1       -0.0409
     15 C          60.4497   80.6213   14.0755 C.1     1  UNL1        0.1086
     16 N          59.0722   80.2060   14.4999 N.1     1  UNL1       -0.1903
     17 C          61.8079   87.7036   11.4864 C.3     1  UNL1        0.0991
     18 C          65.8760   94.9555   10.7053 C.3     1  UNL1        0.1122
     19 N          65.0753   93.6896   10.6253 N.am    1  UNL1       -0.2870
     20 C          65.0106   92.7672   11.8064 C.2     1  UNL1        0.3041
     21 O          65.7465   93.1108   13.0674 O.2     1  UNL1       -0.2526
     22 N          64.2099   91.5013   11.7264 N.am    1  UNL1       -0.2614
     23 C          63.4740   91.1578   10.4653 C.3     1  UNL1        0.1123
     24 C          62.6733   89.8918   10.3853 C.3     1  UNL1        0.0942
     25 N          62.6086   88.9695   11.5664 N.3     1  UNL1       -0.2660
     26 C          63.3445   89.3130   12.8275 C.3     1  UNL1        0.0942
     27 C          64.1452   90.5789   12.9075 C.3     1  UNL1        0.1123
     28 H          64.5923   93.4641    9.7976 H       1  UNL1        0.1510
@<TRIPOS>BOND
     1    18    19    1
     2    19    20   am
     3    20    21    2
     4    20    22   am
     5    22    23    1
     6    23    24    1
     7    24    25    1
     8    25    17    1
     9    17     1    1
    10     1     2   ar
    11     2     3   ar
    12     3     4   ar
    13     4     5   ar
    14     5     8    1
    15     8    10    1
    16    10    11   ar
    17    11    12   ar
    18    12    13   ar
    19    13    15    1
    20    15    16    3
    21    13    14   ar
    22     5     6   ar
    23     6     7    1
    24    25    26    1
    25    26    27    1
    26    27    22    1
    27     6     1   ar
    28    14    10   ar
    29    19    28    1
    30     8     9    1
@<TRIPOS>MOLECULE
*****
 28 30 0 0 0
SMALL
GASTEIGER

@<TRIPOS>ATOM
      1 C          61.2237   88.5711   11.0535 C.ar    1  UNL1       -0.0059
      2 C          60.1158   88.4963   10.0450 C.ar    1  UNL1        0.0175
      3 C          59.9287   87.2530    9.2271 C.ar    1  UNL1        0.1000
      4 N          60.8495   86.0843    9.4177 N.ar    1  UNL1       -0.2294
      5 C          61.9574   86.1590   10.4261 C.ar    1  UNL1        0.1292
      6 C          62.1445   87.4024   11.2441 C.ar    1  UNL1        0.0073
      7 C          63.2524   87.4771   12.2525 C.3     1  UNL1        0.0337
      8 N          62.8782   84.9903   10.6167 N.pl3   1  UNL1       -0.2784
      9 H          63.5645   84.7890    9.9402 H       1  UNL1        0.1555
     10 C          62.7532   84.1284   11.8379 C.ar    1  UNL1        0.1653
     11 N          62.5098   84.6115   13.2370 N.ar    1  UNL1       -0.2217
     12 C          62.4559   83.4137   14.1383 C.ar    1  UNL1        0.1177
     13 C          62.6660   82.1902   13.2962 C.ar    1  UNL1        0.1194
     14 S          62.8497   82.6319   11.8745 S.2     1  UNL1       -0.0409
     15 C          62.6884   80.7737   13.7892 C.1     1  UNL1        0.1086
     16 N          62.7108   79.3572   14.2823 N.1     1  UNL1       -0.1903
     17 C          61.4108   89.8145   11.8714 C.3     1  UNL1        0.0991
     18 C          67.7342   94.6853    9.4138 C.3     1  UNL1        0.1122
     19 N          66.5296   93.8185    9.6317 N.am    1  UNL1       -0.2870
     20 C          66.2292   93.2819   10.9998 C.2     1  UNL1        0.3041
     21 O          67.1335   93.6123   12.1501 O.2     1  UNL1       -0.2526
     22 N          65.0246   92.4151   11.2177 N.am    1  UNL1       -0.2614
     23 C          64.1204   92.0847   10.0674 C.3     1  UNL1        0.1123
     24 C          62.9158   91.2179   10.2853 C.3     1  UNL1        0.0942
     25 N          62.6154   90.6813   11.6535 N.3     1  UNL1       -0.2660
     26 C          63.5196   91.0117   12.8037 C.3     1  UNL1        0.0942
     27 C          64.7242   91.8786   12.5859 C.3     1  UNL1        0.1123
     28 H          65.9361   93.6016    8.8767 H       1  UNL1        0.1510
@<TRIPOS>BOND
     1    18    19    1
     2    19    20   am
     3    20    21    2
     4    20    22   am
     5    22    23    1
     6    23    24    1
     7    24    25    1
     8    25    17    1
     9    17     1    1
    10     1     2   ar
    11     2     3   ar
    12     3     4   ar
    13     4     5   ar
    14     5     8    1
    15     8    10    1
    16    10    11   ar
    17    11    12   ar
    18    12    13   ar
    19    13    15    1
    20    15    16    3
    21    13    14   ar
    22     5     6   ar
    23     6     7    1
    24    25    26    1
    25    26    27    1
    26    27    22    1
    27     6     1   ar
    28    14    10   ar
    29    19    28    1
    30     8     9    1
@<TRIPOS>MOLECULE
*****
 28 30 0 0 0
SMALL
GASTEIGER

@<TRIPOS>ATOM
      1 C          64.9253   91.5147   13.4658 C.ar    1  UNL1       -0.0059
      2 C          65.7279   91.2855   14.7122 C.ar    1  UNL1        0.0175
      3 C          67.1973   91.5863   14.7240 C.ar    1  UNL1        0.1000
      4 N          67.8643   92.1163   13.4894 N.ar    1  UNL1       -0.2294
      5 C          67.0618   92.3455   12.2431 C.ar    1  UNL1        0.1292
      6 C          65.5923   92.0447   12.2312 C.ar    1  UNL1        0.0073
      7 C          64.7898   92.2739   10.9849 C.3     1  UNL1        0.0337
      8 N          67.7288   92.8755   11.0085 N.pl3   1  UNL1       -0.2784
      9 H          68.5126   92.4116   10.6347 H       1  UNL1        0.1555
     10 C          67.2016   94.1123   10.3434 C.ar    1  UNL1        0.1653
     11 N          66.8509   95.4002   11.0278 N.ar    1  UNL1       -0.2217
     12 C          66.3651   96.3622    9.9845 C.ar    1  UNL1        0.1177
     13 C          66.4156   95.6689    8.6552 C.ar    1  UNL1        0.1194
     14 S          66.9326   94.2784    8.8771 S.2     1  UNL1       -0.0409
     15 C          66.0188   96.2620    7.3358 C.1     1  UNL1        0.1086
     16 N          65.6220   96.8551    6.0164 N.1     1  UNL1       -0.1903
     17 C          63.4559   91.2139   13.4540 C.3     1  UNL1        0.0991
     18 C          59.7276   86.3232    7.8033 C.3     1  UNL1        0.1122
     19 N          60.2705   87.3748    8.7249 N.am    1  UNL1       -0.2870
     20 C          61.2841   87.0074    9.7677 C.2     1  UNL1        0.3041
     21 O          61.7548   85.5884    9.8889 O.2     1  UNL1       -0.2526
     22 N          61.8271   88.0590   10.6893 N.am    1  UNL1       -0.2614
     23 C          61.3564   89.4781   10.5680 C.3     1  UNL1        0.1123
     24 C          61.8993   90.5297   11.4896 C.3     1  UNL1        0.0942
     25 N          62.9129   90.1623   12.5325 N.3     1  UNL1       -0.2660
     26 C          63.3836   88.7432   12.6537 C.3     1  UNL1        0.0942
     27 C          62.8407   87.6916   11.7321 C.3     1  UNL1        0.1123
     28 H          59.9616   88.3062    8.6453 H       1  UNL1        0.1510
@<TRIPOS>BOND
     1    18    19    1
     2    19    20   am
     3    20    21    2
     4    20    22   am
     5    22    23    1
     6    23    24    1
     7    24    25    1
     8    25    17    1
     9    17     1    1
    10     1     2   ar
    11     2     3   ar
    12     3     4   ar
    13     4     5   ar
    14     5     8    1
    15     8    10    1
    16    10    11   ar
    17    11    12   ar
    18    12    13   ar
    19    13    15    1
    20    15    16    3
    21    13    14   ar
    22     5     6   ar
    23     6     7    1
    24    25    26    1
    25    26    27    1
    26    27    22    1
    27     6     1   ar
    28    14    10   ar
    29    19    28    1
    30     8     9    1
@<TRIPOS>MOLECULE
*****
 28 30 0 0 0
SMALL
GASTEIGER

@<TRIPOS>ATOM
      1 C          60.9270   88.6957   10.0898 C.ar    1  UNL1       -0.0059
      2 C          59.9555   88.4952    8.9645 C.ar    1  UNL1        0.0175
      3 C          59.9682   87.2158    8.1817 C.ar    1  UNL1        0.1000
      4 N          60.9523   86.1367    8.5241 N.ar    1  UNL1       -0.2294
      5 C          61.9238   86.3371    9.6493 C.ar    1  UNL1        0.1292
      6 C          61.9111   87.6166   10.4322 C.ar    1  UNL1        0.0073
      7 C          62.8825   87.8170   11.5574 C.3     1  UNL1        0.0337
      8 N          62.9079   85.2581    9.9917 N.pl3   1  UNL1       -0.2784
      9 H          63.6254   85.0273    9.3584 H       1  UNL1        0.1555
     10 C          62.7987   84.5308   11.2990 C.ar    1  UNL1        0.1653
     11 N          62.3019   85.1089   12.5909 N.ar    1  UNL1       -0.2217
     12 C          62.3633   84.0331   13.6342 C.ar    1  UNL1        0.1177
     13 C          62.8981   82.7899   12.9872 C.ar    1  UNL1        0.1194
     14 S          63.1672   83.0976   11.5439 S.2     1  UNL1       -0.0409
     15 C          63.1242   81.4707   13.6645 C.1     1  UNL1        0.1086
     16 N          63.3502   80.1516   14.3418 N.1     1  UNL1       -0.1903
     17 C          60.9143   89.9751   10.8726 C.3     1  UNL1        0.0991
     18 C          67.7650   92.9656   14.5975 C.3     1  UNL1        0.1122
     19 N          66.4742   92.3525   14.1414 N.am    1  UNL1       -0.2870
     20 C          66.0775   92.4274   12.6968 C.2     1  UNL1        0.3041
     21 O          66.9715   93.1154   11.7082 O.2     1  UNL1       -0.2526
     22 N          64.7867   91.8143   12.2408 N.am    1  UNL1       -0.2614
     23 C          63.8926   91.1264   13.2293 C.3     1  UNL1        0.1123
     24 C          62.6018   90.5133   12.7733 C.3     1  UNL1        0.0942
     25 N          62.2051   90.5882   11.3287 N.3     1  UNL1       -0.2660
     26 C          63.0991   91.2761   10.3401 C.3     1  UNL1        0.0942
     27 C          64.3899   91.8892   10.7962 C.3     1  UNL1        0.1123
     28 H          65.8874   91.9010   14.7903 H       1  UNL1        0.1510
@<TRIPOS>BOND
     1    18    19    1
     2    19    20   am
     3    20    21    2
     4    20    22   am
     5    22    23    1
     6    23    24    1
     7    24    25    1
     8    25    17    1
     9    17     1    1
    10     1     2   ar
    11     2     3   ar
    12     3     4   ar
    13     4     5   ar
    14     5     8    1
    15     8    10    1
    16    10    11   ar
    17    11    12   ar
    18    12    13   ar
    19    13    15    1
    20    15    16    3
    21    13    14   ar
    22     5     6   ar
    23     6     7    1
    24    25    26    1
    25    26    27    1
    26    27    22    1
    27     6     1   ar
    28    14    10   ar
    29    19    28    1
    30     8     9    1
@<TRIPOS>MOLECULE
*****
 28 30 0 0 0
SMALL
GASTEIGER

@<TRIPOS>ATOM
      1 C          60.8255   87.7112   10.1466 C.ar    1  UNL1       -0.0059
      2 C          59.7530   87.5870    9.1053 C.ar    1  UNL1        0.0175
      3 C          59.8487   86.5221    8.0533 C.ar    1  UNL1        0.1000
      4 N          61.0169   85.5813    8.0425 N.ar    1  UNL1       -0.2294
      5 C          62.0895   85.7055    9.0837 C.ar    1  UNL1        0.1292
      6 C          61.9938   86.7705   10.1358 C.ar    1  UNL1        0.0073
      7 C          63.0664   86.8946   11.1770 C.3     1  UNL1        0.0337
      8 N          63.2577   84.7647    9.0729 N.pl3   1  UNL1       -0.2784
      9 H          63.8934   84.7779    8.3213 H       1  UNL1        0.1555
     10 C          63.4575   83.8039   10.2073 C.ar    1  UNL1        0.1653
     11 N          64.7072   83.0254   10.4937 N.ar    1  UNL1       -0.2217
     12 C          64.4647   82.1932   11.7179 C.ar    1  UNL1        0.1177
     13 C          63.0649   82.4574   12.1880 C.ar    1  UNL1        0.1194
     14 S          62.4424   83.4528   11.2544 S.2     1  UNL1       -0.0409
     15 C          62.4037   81.8353   13.3821 C.1     1  UNL1        0.1086
     16 N          61.7425   81.2132   14.5762 N.1     1  UNL1       -0.1903
     17 C          60.7298   88.7762   11.1985 C.3     1  UNL1        0.0991
     18 C          66.7030   94.5942   10.7278 C.3     1  UNL1        0.1122
     19 N          65.6047   93.5830   10.5821 N.am    1  UNL1       -0.2870
     20 C          65.1228   92.8212   11.7810 C.2     1  UNL1        0.3041
     21 O          65.7392   93.0707   13.1256 O.2     1  UNL1       -0.2526
     22 N          64.0246   91.8099   11.6354 N.am    1  UNL1       -0.2614
     23 C          63.4082   91.5605   10.2909 C.3     1  UNL1        0.1123
     24 C          62.3100   90.5492   10.1453 C.3     1  UNL1        0.0942
     25 N          61.8281   89.7874   11.3442 N.3     1  UNL1       -0.2660
     26 C          62.4445   90.0369   12.6887 C.3     1  UNL1        0.0942
     27 C          63.5427   91.0481   12.8343 C.3     1  UNL1        0.1123
     28 H          65.2002   93.4192    9.6997 H       1  UNL1        0.1510
@<TRIPOS>BOND
     1    18    19    1
     2    19    20   am
     3    20    21    2
     4    20    22   am
     5    22    23    1
     6    23    24    1
     7    24    25    1
     8    25    17    1
     9    17     1    1
    10     1     2   ar
    11     2     3   ar
    12     3     4   ar
    13     4     5   ar
    14     5     8    1
    15     8    10    1
    16    10    11   ar
    17    11    12   ar
    18    12    13   ar
    19    13    15    1
    20    15    16    3
    21    13    14   ar
    22     5     6   ar
    23     6     7    1
    24    25    26    1
    25    26    27    1
    26    27    22    1
    27     6     1   ar
    28    14    10   ar
    29    19    28    1
    30     8     9    1
@<TRIPOS>MOLECULE
*****
 28 30 0 0 0
SMALL
GASTEIGER

@<TRIPOS>ATOM
      1 C          63.7794   89.1743   13.6802 C.ar    1  UNL1       -0.0059
      2 C          64.4337   88.4732   14.8336 C.ar    1  UNL1        0.0175
      3 C          64.5022   86.9750   14.8594 C.ar    1  UNL1        0.1000
      4 N          63.9165   86.1779   13.7317 N.ar    1  UNL1       -0.2294
      5 C          63.2622   86.8790   12.5784 C.ar    1  UNL1        0.1292
      6 C          63.1937   88.3772   12.5525 C.ar    1  UNL1        0.0073
      7 C          62.5394   89.0783   11.3991 C.3     1  UNL1        0.0337
      8 N          62.6765   86.0819   11.4507 N.pl3   1  UNL1       -0.2784
      9 H          62.1243   86.5271   10.7680 H       1  UNL1        0.1555
     10 C          62.9321   84.6065   11.3632 C.ar    1  UNL1        0.1653
     11 N          63.6897   83.9059   10.2744 N.ar    1  UNL1       -0.2217
     12 C          63.7009   82.4390   10.5874 C.ar    1  UNL1        0.1177
     13 C          62.9502   82.2329   11.8697 C.ar    1  UNL1        0.1194
     14 S          62.4752   83.5725   12.3491 S.2     1  UNL1       -0.0409
     15 C          62.7159   80.9181   12.5526 C.1     1  UNL1        0.1086
     16 N          62.4815   79.6033   13.2354 N.1     1  UNL1       -0.1903
     17 C          63.7109   90.6725   13.6544 C.3     1  UNL1        0.0991
     18 C          67.3928   95.2193    7.6946 C.3     1  UNL1        0.1122
     19 N          66.5327   94.4454    8.6492 N.am    1  UNL1       -0.2870
     20 C          67.1514   93.7679    9.8358 C.2     1  UNL1        0.3041
     21 O          68.6301   93.8642   10.0678 O.2     1  UNL1       -0.2526
     22 N          66.2912   92.9940   10.7905 N.am    1  UNL1       -0.2614
     23 C          64.8124   92.8978   10.5585 C.3     1  UNL1        0.1123
     24 C          63.9523   92.1239   11.5132 C.3     1  UNL1        0.0942
     25 N          64.5710   91.4464   12.6998 N.3     1  UNL1       -0.2660
     26 C          66.0498   91.5426   12.9317 C.3     1  UNL1        0.0942
     27 C          66.9099   92.3165   11.9771 C.3     1  UNL1        0.1123
     28 H          65.5621   94.3823    8.4969 H       1  UNL1        0.1510
@<TRIPOS>BOND
     1    18    19    1
     2    19    20   am
     3    20    21    2
     4    20    22   am
     5    22    23    1
     6    23    24    1
     7    24    25    1
     8    25    17    1
     9    17     1    1
    10     1     2   ar
    11     2     3   ar
    12     3     4   ar
    13     4     5   ar
    14     5     8    1
    15     8    10    1
    16    10    11   ar
    17    11    12   ar
    18    12    13   ar
    19    13    15    1
    20    15    16    3
    21    13    14   ar
    22     5     6   ar
    23     6     7    1
    24    25    26    1
    25    26    27    1
    26    27    22    1
    27     6     1   ar
    28    14    10   ar
    29    19    28    1
    30     8     9    1
@<TRIPOS>MOLECULE
*****
 28 30 0 0 0
SMALL
GASTEIGER

@<TRIPOS>ATOM
      1 C          63.1315   88.3174   16.2005 C.ar    1  UNL1       -0.0059
      2 C          62.7614   87.8269   17.5689 C.ar    1  UNL1        0.0175
      3 C          63.0583   86.4106   17.9636 C.ar    1  UNL1        0.1000
      4 N          63.7253   85.4847   16.9900 N.ar    1  UNL1       -0.2294
      5 C          64.0953   85.9752   15.6216 C.ar    1  UNL1        0.1292
      6 C          63.7984   87.3916   15.2268 C.ar    1  UNL1        0.0073
      7 C          64.1685   87.8820   13.8585 C.3     1  UNL1        0.0337
      8 N          64.7622   85.0493   14.6480 N.pl3   1  UNL1       -0.2784
      9 H          65.6686   85.2497   14.3199 H       1  UNL1        0.1555
     10 C          64.0483   83.8181   14.1742 C.ar    1  UNL1        0.1653
     11 N          64.5237   82.8797   13.1050 N.ar    1  UNL1       -0.2217
     12 C          63.5029   81.7908   12.9564 C.ar    1  UNL1        0.1177
     13 C          62.3964   82.0563   13.9340 C.ar    1  UNL1        0.1194
     14 S          62.7336   83.3092   14.6866 S.2     1  UNL1       -0.0409
     15 C          61.1685   81.2163   14.1252 C.1     1  UNL1        0.1086
     16 N          59.9406   80.3763   14.3165 N.1     1  UNL1       -0.1903
     17 C          62.8346   89.7337   15.8057 C.3     1  UNL1        0.0991
     18 C          66.8923   93.5648    9.5922 C.3     1  UNL1        0.1122
     19 N          65.9901   92.8492   10.5535 N.am    1  UNL1       -0.2870
     20 C          66.4434   92.5959   11.9607 C.2     1  UNL1        0.3041
     21 O          67.7990   93.0580   12.4066 O.2     1  UNL1       -0.2526
     22 N          65.5412   91.8803   12.9219 N.am    1  UNL1       -0.2614
     23 C          64.1857   91.4182   12.4760 C.3     1  UNL1        0.1123
     24 C          63.2835   90.7027   13.4373 C.3     1  UNL1        0.0942
     25 N          63.7368   90.4493   14.8445 N.3     1  UNL1       -0.2660
     26 C          65.0923   90.9114   15.2904 C.3     1  UNL1        0.0942
     27 C          65.9946   91.6269   14.3291 C.3     1  UNL1        0.1123
     28 H          65.1004   92.5459   10.2608 H       1  UNL1        0.1510
@<TRIPOS>BOND
     1    18    19    1
     2    19    20   am
     3    20    21    2
     4    20    22   am
     5    22    23    1
     6    23    24    1
     7    24    25    1
     8    25    17    1
     9    17     1    1
    10     1     2   ar
    11     2     3   ar
    12     3     4   ar
    13     4     5   ar
    14     5     8    1
    15     8    10    1
    16    10    11   ar
    17    11    12   ar
    18    12    13   ar
    19    13    15    1
    20    15    16    3
    21    13    14   ar
    22     5     6   ar
    23     6     7    1
    24    25    26    1
    25    26    27    1
    26    27    22    1
    27     6     1   ar
    28    14    10   ar
    29    19    28    1
    30     8     9    1
@<TRIPOS>MOLECULE
*****
 28 30 0 0 0
SMALL
GASTEIGER

@<TRIPOS>ATOM
      1 C          64.1543   89.3818   13.8791 C.ar    1  UNL1       -0.0059
      2 C          64.8012   88.3443   14.7482 C.ar    1  UNL1        0.0175
      3 C          64.4776   86.8930   14.5512 C.ar    1  UNL1        0.1000
      4 N          63.5070   86.4790   13.4851 N.ar    1  UNL1       -0.2294
      5 C          62.8601   87.5164   12.6160 C.ar    1  UNL1        0.1292
      6 C          63.1837   88.9678   12.8130 C.ar    1  UNL1        0.0073
      7 C          62.5368   90.0051   11.9439 C.3     1  UNL1        0.0337
      8 N          61.8895   87.1024   11.5498 N.pl3   1  UNL1       -0.2784
      9 H          60.9743   87.4653   11.5495 H       1  UNL1        0.1555
     10 C          62.3134   86.1356   10.4842 C.ar    1  UNL1        0.1653
     11 N          63.1485   84.9067   10.6901 N.ar    1  UNL1       -0.2217
     12 C          63.3278   84.2396    9.3587 C.ar    1  UNL1        0.1177
     13 C          62.6034   85.0562    8.3298 C.ar    1  UNL1        0.1194
     14 S          61.9764   86.2280    9.0254 S.2     1  UNL1       -0.0409
     15 C          62.5205   84.7540    6.8629 C.1     1  UNL1        0.1086
     16 N          62.4376   84.4518    5.3960 N.1     1  UNL1       -0.1903
     17 C          64.4780   90.8331   14.0762 C.3     1  UNL1        0.0991
     18 C          67.2620   95.3939    7.6576 C.3     1  UNL1        0.1122
     19 N          66.5481   94.6317    8.7344 N.am    1  UNL1       -0.2870
     20 C          67.3336   93.8817    9.7690 C.2     1  UNL1        0.3041
     21 O          68.8329   93.8937    9.7268 O.2     1  UNL1       -0.2526
     22 N          66.6197   93.1195   10.8458 N.am    1  UNL1       -0.2614
     23 C          65.1203   93.1074   10.8880 C.3     1  UNL1        0.1123
     24 C          64.4064   92.3453   11.9648 C.3     1  UNL1        0.0942
     25 N          65.1919   91.5952   12.9994 N.3     1  UNL1       -0.2660
     26 C          66.6912   91.6073   12.9572 C.3     1  UNL1        0.0942
     27 C          67.4051   92.3695   11.8804 C.3     1  UNL1        0.1123
     28 H          65.5640   94.6238    8.7621 H       1  UNL1        0.1510
@<TRIPOS>BOND
     1    18    19    1
     2    19    20   am
     3    20    21    2
     4    20    22   am
     5    22    23    1
     6    23    24    1
     7    24    25    1
     8    25    17    1
     9    17     1    1
    10     1     2   ar
    11     2     3   ar
    12     3     4   ar
    13     4     5   ar
    14     5     8    1
    15     8    10    1
    16    10    11   ar
    17    11    12   ar
    18    12    13   ar
    19    13    15    1
    20    15    16    3
    21    13    14   ar
    22     5     6   ar
    23     6     7    1
    24    25    26    1
    25    26    27    1
    26    27    22    1
    27     6     1   ar
    28    14    10   ar
    29    19    28    1
    30     8     9    1
