@<TRIPOS>MOLECULE
*****
 16 18 0 0 0
SMALL
GASTEIGER

@<TRIPOS>ATOM
      1 O          60.7667   87.7019   11.2733 O.2     1  UNL1       -0.2445
      2 C          61.7518   88.8315   11.3325 C.ar    1  UNL1        0.3459
      3 C          61.9539   89.7139   10.1364 C.ar    1  UNL1        0.0825
      4 C          62.9390   90.8435   10.1956 C.ar    1  UNL1        0.0127
      5 C          63.7221   91.0908   11.4509 C.ar    1  UNL1        0.0687
      6 C          64.7072   92.2204   11.5101 C.ar    1  UNL1        0.1395
      7 O          64.9093   93.1028   10.3139 O.3     1  UNL1       -0.5053
      8 C          65.4902   92.4677   12.7653 C.ar    1  UNL1        0.0715
      9 C          66.5236   93.4964   13.1175 C.ar    1  UNL1        0.0467
     10 C          66.9601   93.2498   14.5312 C.ar    1  UNL1        0.1797
     11 O          66.1966   92.0687   15.0528 O.2     1  UNL1       -0.4502
     12 C          65.2881   91.5853   13.9614 C.ar    1  UNL1        0.1514
     13 C          64.3030   90.4557   13.9022 C.ar    1  UNL1        0.0753
     14 C          63.5200   90.2085   12.6469 C.ar    1  UNL1        0.1546
     15 O          62.5348   89.0788   12.5878 O.2     1  UNL1       -0.4208
     16 H          64.4201   92.9483    9.5298 H       1  UNL1        0.2922
@<TRIPOS>BOND
     1     1     2    2
     2     2     3   ar
     3     3     4   ar
     4     4     5   ar
     5     5     6   ar
     6     6     7    1
     7     6     8   ar
     8     8     9   ar
     9     9    10   ar
    10    10    11   ar
    11    11    12   ar
    12    12    13   ar
    13    13    14   ar
    14    14    15   ar
    15    15     2   ar
    16    14     5   ar
    17    12     8   ar
    18     7    16    1
@<TRIPOS>MOLECULE
*****
 16 18 0 0 0
SMALL
GASTEIGER

@<TRIPOS>ATOM
      1 O          67.2032   92.7541   16.4361 O.2     1  UNL1       -0.2445
      2 C          66.4642   92.4929   15.1572 C.ar    1  UNL1        0.3459
      3 C          66.6371   93.4176   13.9888 C.ar    1  UNL1        0.0825
      4 C          65.8981   93.1564   12.7099 C.ar    1  UNL1        0.0127
      5 C          64.9862   91.9704   12.5993 C.ar    1  UNL1        0.0687
      6 C          64.2472   91.7092   11.3203 C.ar    1  UNL1        0.1395
      7 O          64.4201   92.6339   10.1519 O.3     1  UNL1       -0.5053
      8 C          63.3353   90.5234   11.2098 C.ar    1  UNL1        0.0715
      9 C          62.4823   90.0145   10.0858 C.ar    1  UNL1        0.0467
     10 C          61.7822   88.7754   10.5596 C.ar    1  UNL1        0.1797
     11 O          62.2025   88.5184   11.9764 O.2     1  UNL1       -0.4502
     12 C          63.1624   89.5987   12.3783 C.ar    1  UNL1        0.1514
     13 C          63.9014   89.8600   13.6572 C.ar    1  UNL1        0.0753
     14 C          64.8133   91.0458   13.7677 C.ar    1  UNL1        0.1546
     15 O          65.5523   91.3070   15.0467 O.2     1  UNL1       -0.4208
     16 H          64.9897   93.3747   10.2210 H       1  UNL1        0.2922
@<TRIPOS>BOND
     1     1     2    2
     2     2     3   ar
     3     3     4   ar
     4     4     5   ar
     5     5     6   ar
     6     6     7    1
     7     6     8   ar
     8     8     9   ar
     9     9    10   ar
    10    10    11   ar
    11    11    12   ar
    12    12    13   ar
    13    13    14   ar
    14    14    15   ar
    15    15     2   ar
    16    14     5   ar
    17    12     8   ar
    18     7    16    1
@<TRIPOS>MOLECULE
*****
 16 18 0 0 0
SMALL
GASTEIGER

@<TRIPOS>ATOM
      1 O          63.5001   89.5933   12.8197 O.2     1  UNL1       -0.2445
      2 C          63.6411   88.1547   13.2202 C.ar    1  UNL1        0.3459
      3 C          64.3348   87.7973   14.5012 C.ar    1  UNL1        0.0825
      4 C          64.4758   86.3587   14.9016 C.ar    1  UNL1        0.0127
      5 C          63.9231   85.2774   14.0210 C.ar    1  UNL1        0.0687
      6 C          64.0641   83.8386   14.4215 C.ar    1  UNL1        0.1395
      7 O          64.7579   83.4813   15.7026 O.3     1  UNL1       -0.5053
      8 C          63.5113   82.7574   13.5410 C.ar    1  UNL1        0.0715
      9 C          63.4997   81.2633   13.6732 C.ar    1  UNL1        0.0467
     10 C          62.7987   80.6973   12.4739 C.ar    1  UNL1        0.1797
     11 O          62.3772   81.8416   11.6005 O.2     1  UNL1       -0.4502
     12 C          62.8176   83.1149   12.2600 C.ar    1  UNL1        0.1514
     13 C          62.6766   84.5535   11.8595 C.ar    1  UNL1        0.0753
     14 C          63.2293   85.6347   12.7401 C.ar    1  UNL1        0.1546
     15 O          63.0883   87.0735   12.3396 O.2     1  UNL1       -0.4208
     16 H          65.1031   84.1567   16.2526 H       1  UNL1        0.2922
@<TRIPOS>BOND
     1     1     2    2
     2     2     3   ar
     3     3     4   ar
     4     4     5   ar
     5     5     6   ar
     6     6     7    1
     7     6     8   ar
     8     8     9   ar
     9     9    10   ar
    10    10    11   ar
    11    11    12   ar
    12    12    13   ar
    13    13    14   ar
    14    14    15   ar
    15    15     2   ar
    16    14     5   ar
    17    12     8   ar
    18     7    16    1
@<TRIPOS>MOLECULE
*****
 16 18 0 0 0
SMALL
GASTEIGER

@<TRIPOS>ATOM
      1 O          59.6059   87.8455    7.5817 O.2     1  UNL1       -0.2445
      2 C          60.4850   87.8845    8.7965 C.ar    1  UNL1        0.3459
      3 C          60.8573   86.6098    9.4941 C.ar    1  UNL1        0.0825
      4 C          61.7364   86.6488   10.7089 C.ar    1  UNL1        0.0127
      5 C          62.2432   87.9625   11.2261 C.ar    1  UNL1        0.0687
      6 C          63.1223   88.0015   12.4409 C.ar    1  UNL1        0.1395
      7 O          63.4946   86.7268   13.1385 O.3     1  UNL1       -0.5053
      8 C          63.6291   89.3152   12.9580 C.ar    1  UNL1        0.0715
      9 C          64.5051   89.6640   14.1246 C.ar    1  UNL1        0.0467
     10 C          64.6742   91.1542   14.1479 C.ar    1  UNL1        0.1797
     11 O          63.9027   91.7264   12.9958 O.2     1  UNL1       -0.4502
     12 C          63.2568   90.5898   12.2604 C.ar    1  UNL1        0.1514
     13 C          62.3777   90.5508   11.0456 C.ar    1  UNL1        0.0753
     14 C          61.8709   89.2371   10.5285 C.ar    1  UNL1        0.1546
     15 O          60.9918   89.1982    9.3137 O.2     1  UNL1       -0.4208
     16 H          63.1780   85.9062   12.8154 H       1  UNL1        0.2922
@<TRIPOS>BOND
     1     1     2    2
     2     2     3   ar
     3     3     4   ar
     4     4     5   ar
     5     5     6   ar
     6     6     7    1
     7     6     8   ar
     8     8     9   ar
     9     9    10   ar
    10    10    11   ar
    11    11    12   ar
    12    12    13   ar
    13    13    14   ar
    14    14    15   ar
    15    15     2   ar
    16    14     5   ar
    17    12     8   ar
    18     7    16    1
@<TRIPOS>MOLECULE
*****
 16 18 0 0 0
SMALL
GASTEIGER

@<TRIPOS>ATOM
      1 O          64.6784   86.9212   14.7496 O.2     1  UNL1       -0.2445
      2 C          63.8789   87.4850   13.6125 C.ar    1  UNL1        0.3459
      3 C          63.8498   88.9664   13.3783 C.ar    1  UNL1        0.0825
      4 C          63.0503   89.5302   12.2412 C.ar    1  UNL1        0.0127
      5 C          62.2800   88.6127   11.3384 C.ar    1  UNL1        0.0687
      6 C          61.4805   89.1766   10.2013 C.ar    1  UNL1        0.1395
      7 O          61.4514   90.6579    9.9670 O.3     1  UNL1       -0.5053
      8 C          60.7103   88.2591    9.2985 C.ar    1  UNL1        0.0715
      9 C          59.8394   88.5227    8.1061 C.ar    1  UNL1        0.0467
     10 C          59.3303   87.2043    7.6034 C.ar    1  UNL1        0.1797
     11 O          59.8867   86.1259    8.4852 O.2     1  UNL1       -0.4502
     12 C          60.7395   86.7778    9.5329 C.ar    1  UNL1        0.1514
     13 C          61.5390   86.2140   10.6700 C.ar    1  UNL1        0.0753
     14 C          62.3092   87.1315   11.5727 C.ar    1  UNL1        0.1546
     15 O          63.1087   86.5676   12.7098 O.2     1  UNL1       -0.4208
     16 H          61.9325   91.2310   10.5310 H       1  UNL1        0.2922
@<TRIPOS>BOND
     1     1     2    2
     2     2     3   ar
     3     3     4   ar
     4     4     5   ar
     5     5     6   ar
     6     6     7    1
     7     6     8   ar
     8     8     9   ar
     9     9    10   ar
    10    10    11   ar
    11    11    12   ar
    12    12    13   ar
    13    13    14   ar
    14    14    15   ar
    15    15     2   ar
    16    14     5   ar
    17    12     8   ar
    18     7    16    1
@<TRIPOS>MOLECULE
*****
 16 18 0 0 0
SMALL
GASTEIGER

@<TRIPOS>ATOM
      1 O          65.3528   92.4833   14.7231 O.2     1  UNL1       -0.2445
      2 C          64.6926   91.3290   14.0291 C.ar    1  UNL1        0.3459
      3 C          64.8739   89.9354   14.5535 C.ar    1  UNL1        0.0825
      4 C          64.2137   88.7811   13.8595 C.ar    1  UNL1        0.0127
      5 C          63.3721   89.0205   12.6410 C.ar    1  UNL1        0.0687
      6 C          62.7119   87.8661   11.9470 C.ar    1  UNL1        0.1395
      7 O          62.8932   86.4725   12.4714 O.3     1  UNL1       -0.5053
      8 C          61.8703   88.1055   10.7286 C.ar    1  UNL1        0.0715
      9 C          61.1018   87.1724    9.8405 C.ar    1  UNL1        0.0467
     10 C          60.4455   87.9893    8.7673 C.ar    1  UNL1        0.1797
     11 O          60.8084   89.4273    8.9921 O.2     1  UNL1       -0.4502
     12 C          61.6891   89.4991   10.2042 C.ar    1  UNL1        0.1514
     13 C          62.3493   90.6534   10.8983 C.ar    1  UNL1        0.0753
     14 C          63.1908   90.4140   12.1167 C.ar    1  UNL1        0.1546
     15 O          63.8511   91.5684   12.8107 O.2     1  UNL1       -0.4208
     16 H          63.4189   86.3230   13.2325 H       1  UNL1        0.2922
@<TRIPOS>BOND
     1     1     2    2
     2     2     3   ar
     3     3     4   ar
     4     4     5   ar
     5     5     6   ar
     6     6     7    1
     7     6     8   ar
     8     8     9   ar
     9     9    10   ar
    10    10    11   ar
    11    11    12   ar
    12    12    13   ar
    13    13    14   ar
    14    14    15   ar
    15    15     2   ar
    16    14     5   ar
    17    12     8   ar
    18     7    16    1
@<TRIPOS>MOLECULE
*****
 16 18 0 0 0
SMALL
GASTEIGER

@<TRIPOS>ATOM
      1 O          59.4907   89.7983   11.0677 O.2     1  UNL1       -0.2445
      2 C          60.3059   88.6218   10.6192 C.ar    1  UNL1        0.3459
      3 C          60.5559   88.3961    9.1574 C.ar    1  UNL1        0.0825
      4 C          61.3711   87.2196    8.7089 C.ar    1  UNL1        0.0127
      5 C          61.9363   86.2687    9.7221 C.ar    1  UNL1        0.0687
      6 C          62.7515   85.0922    9.2735 C.ar    1  UNL1        0.1395
      7 O          63.0015   84.8665    7.8118 O.3     1  UNL1       -0.5053
      8 C          63.3167   84.1414   10.2867 C.ar    1  UNL1        0.0715
      9 C          64.1519   82.9035   10.1450 C.ar    1  UNL1        0.0467
     10 C          64.4181   82.3642   11.5191 C.ar    1  UNL1        0.1797
     11 O          63.7474   83.2687   12.5101 O.2     1  UNL1       -0.4502
     12 C          63.0667   84.3671   11.7484 C.ar    1  UNL1        0.1514
     13 C          62.2515   85.5436   12.1969 C.ar    1  UNL1        0.0753
     14 C          61.6863   86.4944   11.1837 C.ar    1  UNL1        0.1546
     15 O          60.8711   87.6710   11.6323 O.2     1  UNL1       -0.4208
     16 H          62.6485   85.4605    7.1789 H       1  UNL1        0.2922
@<TRIPOS>BOND
     1     1     2    2
     2     2     3   ar
     3     3     4   ar
     4     4     5   ar
     5     5     6   ar
     6     6     7    1
     7     6     8   ar
     8     8     9   ar
     9     9    10   ar
    10    10    11   ar
    11    11    12   ar
    12    12    13   ar
    13    13    14   ar
    14    14    15   ar
    15    15     2   ar
    16    14     5   ar
    17    12     8   ar
    18     7    16    1
@<TRIPOS>MOLECULE
*****
 16 18 0 0 0
SMALL
GASTEIGER

@<TRIPOS>ATOM
      1 O          63.2025   88.0263   17.1551 O.2     1  UNL1       -0.2445
      2 C          63.4155   86.8965   16.1917 C.ar    1  UNL1        0.3459
      3 C          64.4641   87.0081   15.1249 C.ar    1  UNL1        0.0825
      4 C          64.6771   85.8783   14.1615 C.ar    1  UNL1        0.0127
      5 C          63.8414   84.6369   14.2649 C.ar    1  UNL1        0.0687
      6 C          64.0544   83.5070   13.3014 C.ar    1  UNL1        0.1395
      7 O          65.1031   83.6187   12.2346 O.3     1  UNL1       -0.5053
      8 C          63.2188   82.2657   13.4048 C.ar    1  UNL1        0.0715
      9 C          63.2009   80.9982   12.6029 C.ar    1  UNL1        0.0467
     10 C          62.1413   80.1032   13.1740 C.ar    1  UNL1        0.1797
     11 O          61.5042   80.8176   14.3290 O.2     1  UNL1       -0.4502
     12 C          62.1702   82.1541   14.4716 C.ar    1  UNL1        0.1514
     13 C          61.9572   83.2839   15.4350 C.ar    1  UNL1        0.0753
     14 C          62.7928   84.5253   15.3316 C.ar    1  UNL1        0.1546
     15 O          62.5798   85.6551   16.2951 O.2     1  UNL1       -0.4208
     16 H          65.6250   84.3941   12.1701 H       1  UNL1        0.2922
@<TRIPOS>BOND
     1     1     2    2
     2     2     3   ar
     3     3     4   ar
     4     4     5   ar
     5     5     6   ar
     6     6     7    1
     7     6     8   ar
     8     8     9   ar
     9     9    10   ar
    10    10    11   ar
    11    11    12   ar
    12    12    13   ar
    13    13    14   ar
    14    14    15   ar
    15    15     2   ar
    16    14     5   ar
    17    12     8   ar
    18     7    16    1
@<TRIPOS>MOLECULE
*****
 16 18 0 0 0
SMALL
GASTEIGER

@<TRIPOS>ATOM
      1 O          64.5298   83.0408   13.8311 O.2     1  UNL1       -0.2445
      2 C          63.9761   83.6085   12.5579 C.ar    1  UNL1        0.3459
      3 C          64.4534   83.0876   11.2346 C.ar    1  UNL1        0.0825
      4 C          63.8997   83.6552    9.9613 C.ar    1  UNL1        0.0127
      5 C          62.8688   84.7437   10.0113 C.ar    1  UNL1        0.0687
      6 C          62.3151   85.3113    8.7380 C.ar    1  UNL1        0.1395
      7 O          62.7924   84.7905    7.4147 O.3     1  UNL1       -0.5053
      8 C          61.2842   86.3998    8.7880 C.ar    1  UNL1        0.0715
      9 C          60.5616   87.1481    7.7073 C.ar    1  UNL1        0.0467
     10 C          59.6378   88.1315    8.3627 C.ar    1  UNL1        0.1797
     11 O          59.7894   87.9909    9.8484 O.2     1  UNL1       -0.4502
     12 C          60.8070   86.9206   10.1112 C.ar    1  UNL1        0.1514
     13 C          61.3607   86.3529   11.3845 C.ar    1  UNL1        0.0753
     14 C          62.3916   85.2645   11.3345 C.ar    1  UNL1        0.1546
     15 O          62.9452   84.6969   12.6079 O.2     1  UNL1       -0.4208
     16 H          63.4364   84.1105    7.3835 H       1  UNL1        0.2922
@<TRIPOS>BOND
     1     1     2    2
     2     2     3   ar
     3     3     4   ar
     4     4     5   ar
     5     5     6   ar
     6     6     7    1
     7     6     8   ar
     8     8     9   ar
     9     9    10   ar
    10    10    11   ar
    11    11    12   ar
    12    12    13   ar
    13    13    14   ar
    14    14    15   ar
    15    15     2   ar
    16    14     5   ar
    17    12     8   ar
    18     7    16    1
