@<TRIPOS>MOLECULE
*****
 30 33 0 0 0
SMALL
GASTEIGER

@<TRIPOS>ATOM
      1 N          63.1260   89.6961   11.6586 N.pl3   1  UNL1       -0.2736
      2 C          63.8061   90.9518   11.1996 C.3     1  UNL1        0.1082
      3 C          64.5336   91.5400   12.3721 C.3     1  UNL1        0.1548
      4 C          65.3762   92.7727   12.5149 C.2     1  UNL1        0.2922
      5 O          65.6067   93.6650   11.3313 O.2     1  UNL1       -0.2563
      6 N          65.9883   93.1133   13.8413 N.am    1  UNL1       -0.1448
      7 C          66.8310   94.3461   13.9841 C.3     1  UNL1        0.2159
      8 C          65.7579   92.2211   15.0249 C.2     1  UNL1        0.3732
      9 N          66.3701   92.5616   16.3513 N.pl3   1  UNL1       -0.2512
     10 N          64.9154   90.9884   14.8821 N.2     1  UNL1       -0.1017
     11 C          64.3032   90.6478   13.5557 C.3     1  UNL1        0.1953
     12 C          63.4332   89.5082   13.1148 C.3     1  UNL1        0.1381
     13 H          66.9231   93.3707   16.4451 H       1  UNL1        0.2412
     14 H          66.2188   91.9760   17.1281 H       1  UNL1        0.2412
     15 C          61.5043   86.3947   10.1683 C.ar    1  UNL1        0.2569
     16 N          62.3442   87.3031   11.0165 N.ar    1  UNL1       -0.1768
     17 C          62.2861   88.7878   10.8104 C.ar    1  UNL1        0.2226
     18 N          61.3881   89.3640    9.7562 N.ar    1  UNL1       -0.2155
     19 C          60.5482   88.4556    8.9080 C.ar    1  UNL1        0.0942
     20 C          59.6501   89.0318    7.8538 C.3     1  UNL1        0.0548
     21 C          60.6063   86.9709    9.1140 C.ar    1  UNL1        0.2065
     22 F          59.7664   86.0626    8.2658 F       1  UNL1       -0.1980
     23 C          62.6248   84.3156   11.2508 C.3     1  UNL1        0.2543
     24 O          61.5625   84.9101   10.3744 O.3     1  UNL1       -0.4545
     25 C          63.9863   89.6656   14.6442 C.ar    1  UNL1        0.0156
     26 C          63.2867   90.1253   15.8889 C.ar    1  UNL1       -0.0010
     27 C          62.9698   89.1430   16.9773 C.ar    1  UNL1       -0.0002
     28 C          63.3523   87.7011   16.8210 C.ar    1  UNL1       -0.0000
     29 C          64.0518   87.2414   15.5763 C.ar    1  UNL1       -0.0002
     30 C          64.3688   88.2236   14.4878 C.ar    1  UNL1       -0.0010
@<TRIPOS>BOND
     1    23    24    1
     2    24    15    1
     3    15    16   ar
     4    16    17   ar
     5    17     1    1
     6     1     2    1
     7     3     2    1
     8     3     4    1
     9     4     5    2
    10     4     6   am
    11     6     7    1
    12     6     8    1
    13     8     9    1
    14     8    10    2
    15    10    11    1
    16    11    25    1
    17    25    26   ar
    18    26    27   ar
    19    27    28   ar
    20    28    29   ar
    21    29    30   ar
    22    11    12    1
    23    17    18   ar
    24    18    19   ar
    25    19    20    1
    26    19    21   ar
    27    21    22    1
    28    21    15   ar
    29    12     1    1
    30    11     3    1
    31    30    25   ar
    32     9    13    1
    33     9    14    1
@<TRIPOS>MOLECULE
*****
 30 33 0 0 0
SMALL
GASTEIGER

@<TRIPOS>ATOM
      1 N          63.0837   89.8164   11.5682 N.pl3   1  UNL1       -0.2736
      2 C          63.7747   91.0825   11.1561 C.3     1  UNL1        0.1082
      3 C          64.5393   91.5992   12.3387 C.3     1  UNL1        0.1548
      4 C          65.4062   92.8094   12.5224 C.2     1  UNL1        0.2922
      5 O          65.6247   93.7561   11.3796 O.2     1  UNL1       -0.2563
      6 N          66.0547   93.0729   13.8491 N.am    1  UNL1       -0.1448
      7 C          66.9217   94.2832   14.0329 C.3     1  UNL1        0.2159
      8 C          65.8364   92.1263   14.9919 C.2     1  UNL1        0.3732
      9 N          66.4849   92.3898   16.3186 N.pl3   1  UNL1       -0.2512
     10 N          64.9694   90.9161   14.8082 N.2     1  UNL1       -0.1017
     11 C          64.3209   90.6525   13.4815 C.3     1  UNL1        0.1953
     12 C          63.4213   89.5507   13.0054 C.3     1  UNL1        0.1381
     13 H          67.0539   93.1842   16.4393 H       1  UNL1        0.2412
     14 H          66.3415   91.7685   17.0687 H       1  UNL1        0.2412
     15 C          60.3137   88.7565    8.9311 C.ar    1  UNL1        0.2569
     16 N          61.1887   89.6074    9.8032 N.ar    1  UNL1       -0.1768
     17 C          62.2088   88.9655   10.6962 C.ar    1  UNL1        0.2226
     18 N          62.3539   87.4727   10.7171 N.ar    1  UNL1       -0.2155
     19 C          61.4789   86.6219    9.8451 C.ar    1  UNL1        0.0942
     20 C          61.6240   85.1290    9.8660 C.3     1  UNL1        0.0548
     21 C          60.4588   87.2637    8.9521 C.ar    1  UNL1        0.2065
     22 F          59.5839   86.4128    8.0801 F       1  UNL1       -0.1980
     23 C          59.4966   89.4062    6.5520 C.3     1  UNL1        0.2543
     24 O          59.2937   89.3985    8.0382 O.3     1  UNL1       -0.4545
     25 C          64.0123   89.6221   14.5270 C.ar    1  UNL1        0.0156
     26 C          64.4147   88.1929   14.3133 C.ar    1  UNL1       -0.0010
     27 C          64.1061   87.1625   15.3587 C.ar    1  UNL1       -0.0002
     28 C          63.3950   87.5612   16.6178 C.ar    1  UNL1       -0.0000
     29 C          62.9925   88.9904   16.8315 C.ar    1  UNL1       -0.0002
     30 C          63.3011   90.0208   15.7861 C.ar    1  UNL1       -0.0010
@<TRIPOS>BOND
     1    23    24    1
     2    24    15    1
     3    15    16   ar
     4    16    17   ar
     5    17     1    1
     6     1     2    1
     7     3     2    1
     8     3     4    1
     9     4     5    2
    10     4     6   am
    11     6     7    1
    12     6     8    1
    13     8     9    1
    14     8    10    2
    15    10    11    1
    16    11    25    1
    17    25    26   ar
    18    26    27   ar
    19    27    28   ar
    20    28    29   ar
    21    29    30   ar
    22    11    12    1
    23    17    18   ar
    24    18    19   ar
    25    19    20    1
    26    19    21   ar
    27    21    22    1
    28    21    15   ar
    29    12     1    1
    30    11     3    1
    31    30    25   ar
    32     9    13    1
    33     9    14    1
@<TRIPOS>MOLECULE
*****
 30 33 0 0 0
SMALL
GASTEIGER

@<TRIPOS>ATOM
      1 N          62.4485   89.2322   11.6270 N.pl3   1  UNL1       -0.2736
      2 C          61.5392   89.9539   10.6771 C.3     1  UNL1        0.1082
      3 C          60.9841   88.9482    9.7126 C.3     1  UNL1        0.1548
      4 C          60.0362   89.0820    8.5578 C.2     1  UNL1        0.2922
      5 O          59.4699   90.4252    8.2040 O.2     1  UNL1       -0.2563
      6 N          59.6545   87.8725    7.7568 N.am    1  UNL1       -0.1448
      7 C          58.7065   88.0063    6.6020 C.3     1  UNL1        0.2159
      8 C          60.2206   86.5294    8.1106 C.2     1  UNL1        0.3732
      9 N          59.8389   85.3198    7.3097 N.pl3   1  UNL1       -0.2512
     10 N          61.1686   86.3955    9.2654 N.2     1  UNL1       -0.1017
     11 C          61.5503   87.6050   10.0664 C.3     1  UNL1        0.1953
     12 C          62.4554   87.7805   11.2496 C.3     1  UNL1        0.1381
     13 H          59.2168   85.4076    6.5517 H       1  UNL1        0.2412
     14 H          60.2106   84.4383    7.5419 H       1  UNL1        0.2412
     15 C          63.6837   90.0817   15.3017 C.ar    1  UNL1        0.2569
     16 N          62.9161   89.4607   14.1725 N.ar    1  UNL1       -0.1768
     17 C          63.2162   89.8533   12.7562 C.ar    1  UNL1        0.2226
     18 N          64.2841   90.8668   12.4691 N.ar    1  UNL1       -0.2155
     19 C          65.0518   91.4877   13.5983 C.ar    1  UNL1        0.0942
     20 C          66.1196   92.5013   13.3112 C.3     1  UNL1        0.0548
     21 C          64.7516   91.0952   15.0146 C.ar    1  UNL1        0.2065
     22 F          65.5193   91.7162   16.1438 F       1  UNL1       -0.1980
     23 C          63.0331   88.2676   17.0440 C.3     1  UNL1        0.2543
     24 O          63.3835   89.6891   16.7179 O.3     1  UNL1       -0.4545
     25 C          62.1937   86.3340   10.5363 C.ar    1  UNL1        0.0156
     26 C          62.9073   85.4485    9.5582 C.ar    1  UNL1       -0.0010
     27 C          63.5506   84.1776   10.0281 C.ar    1  UNL1       -0.0002
     28 C          63.4803   83.7922   11.4761 C.ar    1  UNL1       -0.0000
     29 C          62.7667   84.6778   12.4541 C.ar    1  UNL1       -0.0002
     30 C          62.1234   85.9487   11.9842 C.ar    1  UNL1       -0.0010
@<TRIPOS>BOND
     1    23    24    1
     2    24    15    1
     3    15    16   ar
     4    16    17   ar
     5    17     1    1
     6     1     2    1
     7     3     2    1
     8     3     4    1
     9     4     5    2
    10     4     6   am
    11     6     7    1
    12     6     8    1
    13     8     9    1
    14     8    10    2
    15    10    11    1
    16    11    25    1
    17    25    26   ar
    18    26    27   ar
    19    27    28   ar
    20    28    29   ar
    21    29    30   ar
    22    11    12    1
    23    17    18   ar
    24    18    19   ar
    25    19    20    1
    26    19    21   ar
    27    21    22    1
    28    21    15   ar
    29    12     1    1
    30    11     3    1
    31    30    25   ar
    32     9    13    1
    33     9    14    1
@<TRIPOS>MOLECULE
*****
 30 33 0 0 0
SMALL
GASTEIGER

@<TRIPOS>ATOM
      1 N          62.6902   84.9769   11.9749 N.pl3   1  UNL1       -0.2736
      2 C          63.3945   85.9205   12.9042 C.3     1  UNL1        0.1082
      3 C          63.1773   87.3163   12.3997 C.3     1  UNL1        0.1548
      4 C          63.6347   88.6505   12.9101 C.2     1  UNL1        0.2922
      5 O          64.4733   88.7316   14.1512 O.2     1  UNL1       -0.2563
      6 N          63.2535   89.9039   12.1793 N.am    1  UNL1       -0.1448
      7 C          63.7110   91.2382   12.6897 C.3     1  UNL1        0.2159
      8 C          62.4150   89.8229   10.9383 C.2     1  UNL1        0.3732
      9 N          62.0339   91.0762   10.2075 N.pl3   1  UNL1       -0.2512
     10 N          61.9576   88.4886   10.4279 N.2     1  UNL1       -0.1017
     11 C          62.3387   87.2353   11.1586 C.3     1  UNL1        0.1953
     12 C          62.0377   85.7895   10.8961 C.3     1  UNL1        0.1381
     13 H          62.3341   91.9520   10.5424 H       1  UNL1        0.2412
     14 H          61.4835   91.0231    9.3929 H       1  UNL1        0.2412
     15 C          63.1056   81.1258   11.1106 C.ar    1  UNL1        0.2569
     16 N          63.1496   82.6198   10.9835 N.ar    1  UNL1       -0.1768
     17 C          62.6462   83.4829   12.1022 C.ar    1  UNL1        0.2226
     18 N          62.0987   82.8521   13.3481 N.ar    1  UNL1       -0.2155
     19 C          62.0546   81.3581   13.4752 C.ar    1  UNL1        0.0942
     20 C          61.5072   80.7273   14.7211 C.3     1  UNL1        0.0548
     21 C          62.5581   80.4950   12.3565 C.ar    1  UNL1        0.2065
     22 F          62.5140   79.0010   12.4837 F       1  UNL1       -0.1980
     23 C          62.7523   79.1543    9.4557 C.3     1  UNL1        0.2543
     24 O          63.6090   80.2628    9.9918 O.3     1  UNL1       -0.4545
     25 C          61.5002   86.9986    9.9376 C.ar    1  UNL1        0.0156
     26 C          60.1244   87.5893    9.8466 C.ar    1  UNL1       -0.0010
     27 C          59.2858   87.3526    8.6256 C.ar    1  UNL1       -0.0002
     28 C          59.8231   86.5253    7.4957 C.ar    1  UNL1       -0.0000
     29 C          61.1989   85.9346    7.5867 C.ar    1  UNL1       -0.0002
     30 C          62.0375   86.1713    8.8077 C.ar    1  UNL1       -0.0010
@<TRIPOS>BOND
     1    23    24    1
     2    24    15    1
     3    15    16   ar
     4    16    17   ar
     5    17     1    1
     6     1     2    1
     7     3     2    1
     8     3     4    1
     9     4     5    2
    10     4     6   am
    11     6     7    1
    12     6     8    1
    13     8     9    1
    14     8    10    2
    15    10    11    1
    16    11    25    1
    17    25    26   ar
    18    26    27   ar
    19    27    28   ar
    20    28    29   ar
    21    29    30   ar
    22    11    12    1
    23    17    18   ar
    24    18    19   ar
    25    19    20    1
    26    19    21   ar
    27    21    22    1
    28    21    15   ar
    29    12     1    1
    30    11     3    1
    31    30    25   ar
    32     9    13    1
    33     9    14    1
@<TRIPOS>MOLECULE
*****
 30 33 0 0 0
SMALL
GASTEIGER

@<TRIPOS>ATOM
      1 N          62.4505   89.2177   11.6158 N.pl3   1  UNL1       -0.2736
      2 C          61.5403   89.9417   10.6685 C.3     1  UNL1        0.1082
      3 C          60.9863   88.9388    9.7004 C.3     1  UNL1        0.1548
      4 C          60.0382   89.0756    8.5462 C.2     1  UNL1        0.2922
      5 O          59.4703   90.4194    8.1972 O.2     1  UNL1       -0.2563
      6 N          59.6578   87.8685    7.7409 N.am    1  UNL1       -0.1448
      7 C          58.7096   88.0054    6.5866 C.3     1  UNL1        0.2159
      8 C          60.2256   86.5248    8.0899 C.2     1  UNL1        0.3732
      9 N          59.8453   85.3177    7.2846 N.pl3   1  UNL1       -0.2512
     10 N          61.1738   86.3880    9.2441 N.2     1  UNL1       -0.1017
     11 C          61.5541   87.5950   10.0494 C.3     1  UNL1        0.1953
     12 C          62.4591   87.7674   11.2332 C.3     1  UNL1        0.1381
     13 H          59.2230   85.4075    6.5270 H       1  UNL1        0.2412
     14 H          60.2180   84.4358    7.5136 H       1  UNL1        0.2412
     15 C          65.0853   91.4316   13.5924 C.ar    1  UNL1        0.2569
     16 N          64.3182   90.8137   12.4611 N.ar    1  UNL1       -0.1768
     17 C          63.2175   89.8356   12.7471 C.ar    1  UNL1        0.2226
     18 N          62.8839   89.4754   14.1645 N.ar    1  UNL1       -0.2155
     19 C          63.6510   90.0933   15.2958 C.ar    1  UNL1        0.0942
     20 C          63.3173   89.7331   16.7131 C.3     1  UNL1        0.0548
     21 C          64.7517   91.0714   15.0098 C.ar    1  UNL1        0.2065
     22 F          65.5187   91.6893   16.1411 F       1  UNL1       -0.1980
     23 C          67.6156   92.0190   13.5379 C.3     1  UNL1        0.2543
     24 O          66.1860   92.4097   13.3063 O.3     1  UNL1       -0.4545
     25 C          62.1990   86.3232   10.5147 C.ar    1  UNL1        0.0156
     26 C          62.9081   85.4387    9.5323 C.ar    1  UNL1       -0.0010
     27 C          63.5530   84.1669    9.9976 C.ar    1  UNL1       -0.0002
     28 C          63.4888   83.7795   11.4453 C.ar    1  UNL1       -0.0000
     29 C          62.7797   84.6639   12.4276 C.ar    1  UNL1       -0.0002
     30 C          62.1349   85.9358   11.9623 C.ar    1  UNL1       -0.0010
@<TRIPOS>BOND
     1    23    24    1
     2    24    15    1
     3    15    16   ar
     4    16    17   ar
     5    17     1    1
     6     1     2    1
     7     3     2    1
     8     3     4    1
     9     4     5    2
    10     4     6   am
    11     6     7    1
    12     6     8    1
    13     8     9    1
    14     8    10    2
    15    10    11    1
    16    11    25    1
    17    25    26   ar
    18    26    27   ar
    19    27    28   ar
    20    28    29   ar
    21    29    30   ar
    22    11    12    1
    23    17    18   ar
    24    18    19   ar
    25    19    20    1
    26    19    21   ar
    27    21    22    1
    28    21    15   ar
    29    12     1    1
    30    11     3    1
    31    30    25   ar
    32     9    13    1
    33     9    14    1
@<TRIPOS>MOLECULE
*****
 30 33 0 0 0
SMALL
GASTEIGER

@<TRIPOS>ATOM
      1 N          62.6464   85.0110   12.0409 N.pl3   1  UNL1       -0.2736
      2 C          63.3692   85.9313   12.9793 C.3     1  UNL1        0.1082
      3 C          63.1907   87.3349   12.4812 C.3     1  UNL1        0.1548
      4 C          63.6791   88.6542   13.0014 C.2     1  UNL1        0.2922
      5 O          64.5122   88.7071   14.2477 O.2     1  UNL1       -0.2563
      6 N          63.3344   89.9208   12.2753 N.am    1  UNL1       -0.1448
      7 C          63.8229   91.2402   12.7956 C.3     1  UNL1        0.2159
      8 C          62.5014   89.8679   11.0292 C.2     1  UNL1        0.3732
      9 N          62.1567   91.1345   10.3031 N.pl3   1  UNL1       -0.2512
     10 N          62.0129   88.5485   10.5089 N.2     1  UNL1       -0.1017
     11 C          62.3576   87.2820   11.2349 C.3     1  UNL1        0.1953
     12 C          62.0212   85.8458   10.9628 C.3     1  UNL1        0.1381
     13 H          62.4772   92.0004   10.6445 H       1  UNL1        0.2412
     14 H          61.6099   91.0997    9.4851 H       1  UNL1        0.2412
     15 C          61.7896   81.4036   13.4561 C.ar    1  UNL1        0.2569
     16 N          61.8727   82.8966   13.3372 N.ar    1  UNL1       -0.1768
     17 C          62.5634   83.5180   12.1597 C.ar    1  UNL1        0.2226
     18 N          63.1712   82.6465   11.1009 N.ar    1  UNL1       -0.2155
     19 C          63.0881   81.1534   11.2198 C.ar    1  UNL1        0.0942
     20 C          63.6959   80.2819   10.1610 C.3     1  UNL1        0.0548
     21 C          62.3974   80.5320   12.3973 C.ar    1  UNL1        0.2065
     22 F          62.3143   79.0390   12.5161 F       1  UNL1       -0.1980
     23 C          59.7448   80.1589   14.4659 C.3     1  UNL1        0.2543
     24 O          61.0988   80.7822   14.6336 O.3     1  UNL1       -0.4545
     25 C          61.5204   87.0734   10.0079 C.ar    1  UNL1        0.0156
     26 C          60.1632   87.7047    9.9097 C.ar    1  UNL1       -0.0010
     27 C          59.3260   87.4960    8.6827 C.ar    1  UNL1       -0.0002
     28 C          59.8460   86.6561    7.5539 C.ar    1  UNL1       -0.0000
     29 C          61.2032   86.0249    7.6521 C.ar    1  UNL1       -0.0002
     30 C          62.0404   86.2335    8.8791 C.ar    1  UNL1       -0.0010
@<TRIPOS>BOND
     1    23    24    1
     2    24    15    1
     3    15    16   ar
     4    16    17   ar
     5    17     1    1
     6     1     2    1
     7     3     2    1
     8     3     4    1
     9     4     5    2
    10     4     6   am
    11     6     7    1
    12     6     8    1
    13     8     9    1
    14     8    10    2
    15    10    11    1
    16    11    25    1
    17    25    26   ar
    18    26    27   ar
    19    27    28   ar
    20    28    29   ar
    21    29    30   ar
    22    11    12    1
    23    17    18   ar
    24    18    19   ar
    25    19    20    1
    26    19    21   ar
    27    21    22    1
    28    21    15   ar
    29    12     1    1
    30    11     3    1
    31    30    25   ar
    32     9    13    1
    33     9    14    1
@<TRIPOS>MOLECULE
*****
 30 33 0 0 0
SMALL
GASTEIGER

@<TRIPOS>ATOM
      1 N          63.5200   86.6529   13.2701 N.pl3   1  UNL1       -0.2736
      2 C          63.8244   85.5772   14.2702 C.3     1  UNL1        0.1082
      3 C          63.5746   84.2512   13.6150 C.3     1  UNL1        0.1548
      4 C          63.7056   82.8435   14.1162 C.2     1  UNL1        0.2922
      5 O          64.1643   82.5872   15.5212 O.2     1  UNL1       -0.2563
      6 N          63.3778   81.6920   13.2124 N.am    1  UNL1       -0.1448
      7 C          63.5088   80.2843   13.7136 C.3     1  UNL1        0.2159
      8 C          62.9191   81.9483   11.8075 C.2     1  UNL1        0.3732
      9 N          62.5913   80.7968   10.9037 N.pl3   1  UNL1       -0.2512
     10 N          62.7881   83.3560   11.3063 N.2     1  UNL1       -0.1017
     11 C          63.1158   84.5074   12.2100 C.3     1  UNL1        0.1953
     12 C          63.0821   85.9918   11.9969 C.3     1  UNL1        0.1381
     13 H          62.6773   79.8729   11.2326 H       1  UNL1        0.2412
     14 H          62.2902   80.9650    9.9816 H       1  UNL1        0.2412
     15 C          63.8267   90.5469   12.5676 C.ar    1  UNL1        0.2569
     16 N          63.7131   89.0693   12.3353 N.ar    1  UNL1       -0.1768
     17 C          63.6336   88.1305   13.5025 C.ar    1  UNL1        0.2226
     18 N          63.6678   88.6692   14.9020 N.ar    1  UNL1       -0.2155
     19 C          63.7814   90.1468   15.1343 C.ar    1  UNL1        0.0942
     20 C          63.8155   90.6854   16.5338 C.3     1  UNL1        0.0548
     21 C          63.8608   91.0856   13.9671 C.ar    1  UNL1        0.2065
     22 F          63.9744   92.5631   14.1995 F       1  UNL1       -0.1980
     23 C          63.0911   91.2221   10.1691 C.3     1  UNL1        0.2543
     24 O          63.9061   91.4857   11.4004 O.3     1  UNL1       -0.4545
     25 C          62.6715   84.9167   10.8370 C.ar    1  UNL1        0.0156
     26 C          63.4689   84.5023    9.6360 C.ar    1  UNL1       -0.0010
     27 C          63.0246   84.9116    8.2631 C.ar    1  UNL1       -0.0002
     28 C          61.7828   85.7353    8.0911 C.ar    1  UNL1       -0.0000
     29 C          60.9854   86.1497    9.2922 C.ar    1  UNL1       -0.0002
     30 C          61.4297   85.7404   10.6651 C.ar    1  UNL1       -0.0010
@<TRIPOS>BOND
     1    23    24    1
     2    24    15    1
     3    15    16   ar
     4    16    17   ar
     5    17     1    1
     6     1     2    1
     7     3     2    1
     8     3     4    1
     9     4     5    2
    10     4     6   am
    11     6     7    1
    12     6     8    1
    13     8     9    1
    14     8    10    2
    15    10    11    1
    16    11    25    1
    17    25    26   ar
    18    26    27   ar
    19    27    28   ar
    20    28    29   ar
    21    29    30   ar
    22    11    12    1
    23    17    18   ar
    24    18    19   ar
    25    19    20    1
    26    19    21   ar
    27    21    22    1
    28    21    15   ar
    29    12     1    1
    30    11     3    1
    31    30    25   ar
    32     9    13    1
    33     9    14    1
@<TRIPOS>MOLECULE
*****
 30 33 0 0 0
SMALL
GASTEIGER

@<TRIPOS>ATOM
      1 N          63.6002   86.9465   12.9849 N.pl3   1  UNL1       -0.2736
      2 C          63.8631   85.9780   14.0997 C.3     1  UNL1        0.1082
      3 C          63.5277   84.6016   13.6066 C.3     1  UNL1        0.1548
      4 C          63.5897   83.2562   14.2669 C.2     1  UNL1        0.2922
      5 O          64.0600   83.1382   15.6864 O.2     1  UNL1       -0.2563
      6 N          63.1814   82.0286   13.5076 N.am    1  UNL1       -0.1448
      7 C          63.2434   80.6831   14.1679 C.3     1  UNL1        0.2159
      8 C          62.7111   82.1465   12.0882 C.2     1  UNL1        0.3732
      9 N          62.3028   80.9189   11.3289 N.pl3   1  UNL1       -0.2512
     10 N          62.6491   83.4919   11.4279 N.2     1  UNL1       -0.1017
     11 C          63.0574   84.7195   12.1871 C.3     1  UNL1        0.1953
     12 C          63.1022   86.1687   11.8029 C.3     1  UNL1        0.1381
     13 H          62.3435   80.0359   11.7622 H       1  UNL1        0.2412
     14 H          61.9942   80.9964   10.3972 H       1  UNL1        0.2412
     15 C          64.5307   90.5554   14.3488 C.ar    1  UNL1        0.2569
     16 N          64.3308   89.0699   14.2916 N.ar    1  UNL1       -0.1768
     17 C          63.8001   88.4320   13.0420 C.ar    1  UNL1        0.2226
     18 N          63.4693   89.2797   11.8495 N.ar    1  UNL1       -0.2155
     19 C          63.6692   90.7653   11.9067 C.ar    1  UNL1        0.0942
     20 C          63.3384   91.6130   10.7143 C.3     1  UNL1        0.0548
     21 C          64.1999   91.4031   13.1563 C.ar    1  UNL1        0.2065
     22 F          64.3998   92.8886   13.2134 F       1  UNL1       -0.1980
     23 C          66.1830   92.1857   15.5158 C.3     1  UNL1        0.2543
     24 O          65.0614   91.1932   15.5984 O.3     1  UNL1       -0.4545
     25 C          62.6106   84.9920   10.7814 C.ar    1  UNL1        0.0156
     26 C          61.3556   85.7748   10.5318 C.ar    1  UNL1       -0.0010
     27 C          60.9088   86.0474    9.1261 C.ar    1  UNL1       -0.0002
     28 C          61.7169   85.5371    7.9700 C.ar    1  UNL1       -0.0000
     29 C          62.9719   84.7543    8.2197 C.ar    1  UNL1       -0.0002
     30 C          63.4187   84.4817    9.6254 C.ar    1  UNL1       -0.0010
@<TRIPOS>BOND
     1    23    24    1
     2    24    15    1
     3    15    16   ar
     4    16    17   ar
     5    17     1    1
     6     1     2    1
     7     3     2    1
     8     3     4    1
     9     4     5    2
    10     4     6   am
    11     6     7    1
    12     6     8    1
    13     8     9    1
    14     8    10    2
    15    10    11    1
    16    11    25    1
    17    25    26   ar
    18    26    27   ar
    19    27    28   ar
    20    28    29   ar
    21    29    30   ar
    22    11    12    1
    23    17    18   ar
    24    18    19   ar
    25    19    20    1
    26    19    21   ar
    27    21    22    1
    28    21    15   ar
    29    12     1    1
    30    11     3    1
    31    30    25   ar
    32     9    13    1
    33     9    14    1
@<TRIPOS>MOLECULE
*****
 30 33 0 0 0
SMALL
GASTEIGER

@<TRIPOS>ATOM
      1 N          71.9187   74.6106   14.4048 N.pl3   1  UNL1       -0.2736
      2 C          71.6217   73.5703   13.3657 C.3     1  UNL1        0.1082
      3 C          71.5078   72.2440   14.0570 C.3     1  UNL1        0.1548
      4 C          71.2271   70.8640   13.5407 C.2     1  UNL1        0.2922
      5 O          71.0006   70.6433   12.0744 O.2     1  UNL1       -0.2563
      6 N          71.1729   69.7044   14.4908 N.am    1  UNL1       -0.1448
      7 C          70.8922   68.3242   13.9745 C.3     1  UNL1        0.2159
      8 C          71.3994   69.9250   15.9571 C.2     1  UNL1        0.3732
      9 N          71.3452   68.7655   16.9072 N.pl3   1  UNL1       -0.2512
     10 N          71.6801   71.3051   16.4733 N.2     1  UNL1       -0.1017
     11 C          71.7343   72.4646   15.5233 C.3     1  UNL1        0.1953
     12 C          71.9882   73.9272   15.7382 C.3     1  UNL1        0.1381
     13 H          71.1609   67.8596   16.5684 H       1  UNL1        0.2412
     14 H          71.4938   68.9103   17.8696 H       1  UNL1        0.2412
     15 C          72.3889   78.4966   15.0589 C.ar    1  UNL1        0.2569
     16 N          72.1955   77.0303   15.3093 N.ar    1  UNL1       -0.1768
     17 C          72.1120   76.0768   14.1543 C.ar    1  UNL1        0.2226
     18 N          72.2219   76.5896   12.7490 N.ar    1  UNL1       -0.2155
     19 C          72.4153   78.0559   12.4987 C.ar    1  UNL1        0.0942
     20 C          72.5252   78.5687   11.0933 C.3     1  UNL1        0.0548
     21 C          72.4988   79.0094   13.6536 C.ar    1  UNL1        0.2065
     22 F          72.6922   80.4757   13.4032 F       1  UNL1       -0.1980
     23 C          73.6329   79.3802   17.1618 C.3     1  UNL1        0.2543
     24 O          72.4724   79.4501   16.2139 O.3     1  UNL1       -0.4545
     25 C          71.9798   72.8372   16.9554 C.ar    1  UNL1        0.0156
     26 C          70.8214   73.0455   17.8853 C.ar    1  UNL1       -0.0010
     27 C          71.0669   73.4181   19.3174 C.ar    1  UNL1       -0.0002
     28 C          72.4707   73.5825   19.8195 C.ar    1  UNL1       -0.0000
     29 C          73.6291   73.3742   18.8896 C.ar    1  UNL1       -0.0002
     30 C          73.3837   73.0015   17.4575 C.ar    1  UNL1       -0.0010
@<TRIPOS>BOND
     1    23    24    1
     2    24    15    1
     3    15    16   ar
     4    16    17   ar
     5    17     1    1
     6     1     2    1
     7     3     2    1
     8     3     4    1
     9     4     5    2
    10     4     6   am
    11     6     7    1
    12     6     8    1
    13     8     9    1
    14     8    10    2
    15    10    11    1
    16    11    25    1
    17    25    26   ar
    18    26    27   ar
    19    27    28   ar
    20    28    29   ar
    21    29    30   ar
    22    11    12    1
    23    17    18   ar
    24    18    19   ar
    25    19    20    1
    26    19    21   ar
    27    21    22    1
    28    21    15   ar
    29    12     1    1
    30    11     3    1
    31    30    25   ar
    32     9    13    1
    33     9    14    1
