@<TRIPOS>MOLECULE
*****
 36 40 0 0 0
SMALL
GASTEIGER

@<TRIPOS>ATOM
      1 N          62.9983   90.7001   12.2834 N.3     1  UNL1       -0.2679
      2 C          64.2284   91.5316   12.0696 C.3     1  UNL1        0.0978
      3 C          64.6484   91.9056   10.6791 C.3     1  UNL1        0.0224
      4 C          65.8785   92.7370   10.4652 C.3     1  UNL1        0.0065
      5 C          66.6884   93.1944   11.6419 C.3     1  UNL1        0.0277
      6 C          66.2684   92.8204   13.0324 C.ar    1  UNL1       -0.0073
      7 C          67.0784   93.2778   14.2092 C.ar    1  UNL1       -0.0015
      8 C          66.6583   92.9038   15.5998 C.ar    1  UNL1        0.0203
      9 C          65.4283   92.0724   15.8136 C.ar    1  UNL1        0.0985
     10 N          64.6183   91.6150   14.6369 N.ar    1  UNL1       -0.2471
     11 C          65.0383   91.9890   13.2463 C.ar    1  UNL1        0.0695
     12 C          62.9529   89.7019   13.4021 C.3     1  UNL1        0.0725
     13 C          63.8570   88.5052   13.3766 C.3     1  UNL1        0.0188
     14 C          64.2952   87.8687   14.6622 C.3     1  UNL1        0.0185
     15 C          64.5105   86.3858   14.7297 C.3     1  UNL1        0.0689
     16 N          63.3660   85.4495   14.4776 N.3     1  UNL1       -0.2937
     17 H          62.6778   85.6216   15.2105 H       1  UNL1        0.1236
     18 C          63.6018   83.9686   14.4441 C.3     1  UNL1        0.0956
     19 C          63.5303   81.7667   10.5203 C.ar    1  UNL1       -0.0000
     20 C          64.2539   83.0759   10.6326 C.ar    1  UNL1       -0.0003
     21 C          64.2778   83.8098   11.9405 C.ar    1  UNL1       -0.0029
     22 C          63.5780   83.2346   13.1361 C.ar    1  UNL1       -0.0064
     23 C          62.8544   81.9255   13.0238 C.ar    1  UNL1       -0.0029
     24 C          62.8306   81.1916   11.7158 C.ar    1  UNL1       -0.0003
     25 C          61.8137   90.8669   11.3786 C.3     1  UNL1        0.0886
     26 C          61.4218   89.7607   10.4444 C.3     1  UNL1        0.0748
     27 C          62.3406   88.5934   10.2370 C.3     1  UNL1        0.0432
     28 C          61.9487   87.4871    9.3027 C.ar    1  UNL1       -0.0234
     29 C          62.8676   86.3198    9.0953 C.ar    1  UNL1       -0.0045
     30 C          62.4756   85.2137    8.1611 C.ar    1  UNL1       -0.0003
     31 C          61.1649   85.2748    7.4343 C.ar    1  UNL1       -0.0003
     32 C          60.2461   86.4422    7.6417 C.ar    1  UNL1       -0.0032
     33 C          60.6380   87.5483    8.5759 C.ar    1  UNL1       -0.0103
     34 C          59.7191   88.7157    8.7834 C.3     1  UNL1        0.0953
     35 N          60.1110   89.8219    9.7176 N.3     1  UNL1       -0.2934
     36 H          59.3823   89.8785   10.4290 H       1  UNL1        0.1236
@<TRIPOS>BOND
     1    19    20   ar
     2    20    21   ar
     3    21    22   ar
     4    22    18    1
     5    18    16    1
     6    16    15    1
     7    15    14    1
     8    14    13    1
     9    13    12    1
    10    12     1    1
    11     1    25    1
    12    26    25    1
    13    26    27    1
    14    27    28    1
    15    28    29   ar
    16    29    30   ar
    17    30    31   ar
    18    31    32   ar
    19    32    33   ar
    20    33    34    1
    21    34    35    1
    22     2     1    1
    23     2     3    1
    24     3     4    1
    25     4     5    1
    26     5     6    1
    27     6     7   ar
    28     7     8   ar
    29     8     9   ar
    30     9    10   ar
    31    10    11   ar
    32    22    23   ar
    33    23    24   ar
    34    24    19   ar
    35    35    26    1
    36    11     2    1
    37    33    28   ar
    38    11     6   ar
    39    16    17    1
    40    35    36    1
@<TRIPOS>MOLECULE
*****
 36 40 0 0 0
SMALL
GASTEIGER

@<TRIPOS>ATOM
      1 N          63.3612   88.7675   13.5076 N.3     1  UNL1       -0.2679
      2 C          62.9308   89.1754   12.1298 C.3     1  UNL1        0.0978
      3 C          63.1651   90.5791   11.6557 C.3     1  UNL1        0.0224
      4 C          62.7347   90.9870   10.2779 C.3     1  UNL1        0.0065
      5 C          62.0699   89.9913    9.3743 C.3     1  UNL1        0.0277
      6 C          61.8355   88.5877    9.8484 C.ar    1  UNL1       -0.0073
      7 C          61.1707   87.5919    8.9448 C.ar    1  UNL1       -0.0015
      8 C          60.9363   86.1883    9.4190 C.ar    1  UNL1        0.0203
      9 C          61.3668   85.7803   10.7968 C.ar    1  UNL1        0.0985
     10 N          62.0316   86.7760   11.7004 N.ar    1  UNL1       -0.2471
     11 C          62.2660   88.1797   11.2262 C.ar    1  UNL1        0.0695
     12 C          63.9925   87.4251   13.7295 C.3     1  UNL1        0.0725
     13 C          64.5024   87.0516   15.0899 C.3     1  UNL1        0.0188
     14 C          64.3182   85.6539   15.6021 C.3     1  UNL1        0.0185
     15 C          62.9525   85.1724   15.9934 C.3     1  UNL1        0.0689
     16 N          62.0981   84.4483   14.9955 N.3     1  UNL1       -0.2937
     17 H          61.1530   84.4256   15.3785 H       1  UNL1        0.1236
     18 C          62.4378   83.0426   14.5973 C.3     1  UNL1        0.0956
     19 C          63.9464   82.1823   10.4459 C.ar    1  UNL1       -0.0000
     20 C          64.3696   83.4357   11.1529 C.ar    1  UNL1       -0.0003
     21 C          63.8667   83.7225   12.5367 C.ar    1  UNL1       -0.0029
     22 C          62.9407   82.7559   13.2134 C.ar    1  UNL1       -0.0064
     23 C          62.5175   81.5025   12.5064 C.ar    1  UNL1       -0.0029
     24 C          63.0203   81.2157   11.1226 C.ar    1  UNL1       -0.0003
     25 C          63.1604   89.7020   14.6636 C.3     1  UNL1        0.0886
     26 C          64.2595   90.6381   15.0710 C.3     1  UNL1        0.0748
     27 C          65.5588   90.6407   14.3215 C.3     1  UNL1        0.0432
     28 C          66.6578   91.5768   14.7290 C.ar    1  UNL1       -0.0234
     29 C          67.9571   91.5793   13.9794 C.ar    1  UNL1       -0.0045
     30 C          69.0561   92.5154   14.3869 C.ar    1  UNL1       -0.0003
     31 C          68.8558   93.4488   15.5439 C.ar    1  UNL1       -0.0003
     32 C          67.5565   93.4462   16.2934 C.ar    1  UNL1       -0.0032
     33 C          66.4575   92.5102   15.8859 C.ar    1  UNL1       -0.0103
     34 C          65.1581   92.5076   16.6354 C.3     1  UNL1        0.0953
     35 N          64.0592   91.5715   16.2280 N.3     1  UNL1       -0.2934
     36 H          63.2487   92.1489   16.0036 H       1  UNL1        0.1236
@<TRIPOS>BOND
     1    19    20   ar
     2    20    21   ar
     3    21    22   ar
     4    22    18    1
     5    18    16    1
     6    16    15    1
     7    15    14    1
     8    14    13    1
     9    13    12    1
    10    12     1    1
    11     1    25    1
    12    26    25    1
    13    26    27    1
    14    27    28    1
    15    28    29   ar
    16    29    30   ar
    17    30    31   ar
    18    31    32   ar
    19    32    33   ar
    20    33    34    1
    21    34    35    1
    22     2     1    1
    23     2     3    1
    24     3     4    1
    25     4     5    1
    26     5     6    1
    27     6     7   ar
    28     7     8   ar
    29     8     9   ar
    30     9    10   ar
    31    10    11   ar
    32    22    23   ar
    33    23    24   ar
    34    24    19   ar
    35    35    26    1
    36    11     2    1
    37    33    28   ar
    38    11     6   ar
    39    16    17    1
    40    35    36    1
@<TRIPOS>MOLECULE
*****
 36 40 0 0 0
SMALL
GASTEIGER

@<TRIPOS>ATOM
      1 N          63.8475   89.9527   13.7324 N.3     1  UNL1       -0.2679
      2 C          64.7625   91.1154   13.9791 C.3     1  UNL1        0.0978
      3 C          65.2947   91.3715   15.3578 C.3     1  UNL1        0.0224
      4 C          66.2098   92.5342   15.6045 C.3     1  UNL1        0.0065
      5 C          66.5925   93.4408   14.4725 C.3     1  UNL1        0.0277
      6 C          66.0603   93.1846   13.0937 C.ar    1  UNL1       -0.0073
      7 C          66.4430   94.0912   11.9615 C.ar    1  UNL1       -0.0015
      8 C          65.9108   93.8350   10.5828 C.ar    1  UNL1        0.0203
      9 C          64.9958   92.6723   10.3361 C.ar    1  UNL1        0.0985
     10 N          64.6130   91.7658   11.4681 N.ar    1  UNL1       -0.2471
     11 C          65.1453   92.0219   12.8470 C.ar    1  UNL1        0.0695
     12 C          64.3821   88.5524   13.7887 C.3     1  UNL1        0.0725
     13 C          64.1983   87.7287   15.0288 C.3     1  UNL1        0.0188
     14 C          64.4549   86.2513   14.9928 C.3     1  UNL1        0.0185
     15 C          63.5482   85.3143   15.7343 C.3     1  UNL1        0.0689
     16 N          62.3652   84.7082   15.0391 N.3     1  UNL1       -0.2937
     17 H          61.5677   84.8176   15.6656 H       1  UNL1        0.1236
     18 C          62.3959   83.2669   14.6250 C.3     1  UNL1        0.0956
     19 C          63.7252   82.1463   10.4744 C.ar    1  UNL1       -0.0000
     20 C          64.0160   83.5166   11.0107 C.ar    1  UNL1       -0.0003
     21 C          63.5729   83.8902   12.3942 C.ar    1  UNL1       -0.0029
     22 C          62.8391   82.8934   13.2414 C.ar    1  UNL1       -0.0064
     23 C          62.5483   81.5230   12.7051 C.ar    1  UNL1       -0.0029
     24 C          62.9914   81.1495   11.3216 C.ar    1  UNL1       -0.0003
     25 C          62.3978   90.1903   13.4293 C.3     1  UNL1        0.0886
     26 C          61.8002   89.6598   12.1598 C.3     1  UNL1        0.0748
     27 C          62.2572   88.3415   11.6093 C.3     1  UNL1        0.0432
     28 C          61.6596   87.8110   10.3398 C.ar    1  UNL1       -0.0234
     29 C          62.1165   86.4926    9.7894 C.ar    1  UNL1       -0.0045
     30 C          61.5190   85.9623    8.5199 C.ar    1  UNL1       -0.0003
     31 C          60.4644   86.7502    7.8009 C.ar    1  UNL1       -0.0003
     32 C          60.0074   88.0686    8.3514 C.ar    1  UNL1       -0.0032
     33 C          60.6050   88.5990    9.6208 C.ar    1  UNL1       -0.0103
     34 C          60.1480   89.9174   10.1713 C.3     1  UNL1        0.0953
     35 N          60.7456   90.4478   11.4408 N.3     1  UNL1       -0.2934
     36 H          59.9757   90.5769   12.0972 H       1  UNL1        0.1236
@<TRIPOS>BOND
     1    19    20   ar
     2    20    21   ar
     3    21    22   ar
     4    22    18    1
     5    18    16    1
     6    16    15    1
     7    15    14    1
     8    14    13    1
     9    13    12    1
    10    12     1    1
    11     1    25    1
    12    26    25    1
    13    26    27    1
    14    27    28    1
    15    28    29   ar
    16    29    30   ar
    17    30    31   ar
    18    31    32   ar
    19    32    33   ar
    20    33    34    1
    21    34    35    1
    22     2     1    1
    23     2     3    1
    24     3     4    1
    25     4     5    1
    26     5     6    1
    27     6     7   ar
    28     7     8   ar
    29     8     9   ar
    30     9    10   ar
    31    10    11   ar
    32    22    23   ar
    33    23    24   ar
    34    24    19   ar
    35    35    26    1
    36    11     2    1
    37    33    28   ar
    38    11     6   ar
    39    16    17    1
    40    35    36    1
@<TRIPOS>MOLECULE
*****
 36 40 0 0 0
SMALL
GASTEIGER

@<TRIPOS>ATOM
      1 N          63.5234   88.8852   14.0884 N.3     1  UNL1       -0.2679
      2 C          63.3584   89.5956   12.7777 C.3     1  UNL1        0.0978
      3 C          64.1032   90.8712   12.5170 C.3     1  UNL1        0.0224
      4 C          63.9382   91.5817   11.2063 C.3     1  UNL1        0.0065
      5 C          63.0285   91.0164   10.1561 C.3     1  UNL1        0.0277
      6 C          62.2838   89.7407   10.4167 C.ar    1  UNL1       -0.0073
      7 C          61.3740   89.1754    9.3665 C.ar    1  UNL1       -0.0015
      8 C          60.6293   87.8997    9.6272 C.ar    1  UNL1        0.0203
      9 C          60.7942   87.1893   10.9379 C.ar    1  UNL1        0.0985
     10 N          61.7039   87.7546   11.9881 N.ar    1  UNL1       -0.2471
     11 C          62.4487   89.0303   11.7275 C.ar    1  UNL1        0.0695
     12 C          62.7946   89.3756   15.3042 C.3     1  UNL1        0.0725
     13 C          63.5289   90.1532   16.3561 C.3     1  UNL1        0.0188
     14 C          63.9033   91.5841   16.1066 C.3     1  UNL1        0.0185
     15 C          65.3484   91.9819   16.0479 C.3     1  UNL1        0.0689
     16 N          65.7883   93.0749   15.1196 N.3     1  UNL1       -0.2937
     17 H          65.0094   93.2544   14.4860 H       1  UNL1        0.1236
     18 C          67.0071   92.8881   14.2653 C.3     1  UNL1        0.0956
     19 C          66.7748   93.5982    9.8278 C.ar    1  UNL1       -0.0000
     20 C          67.4883   92.3898   10.3576 C.ar    1  UNL1       -0.0003
     21 C          67.5657   92.1531   11.8368 C.ar    1  UNL1       -0.0029
     22 C          66.9297   93.1247   12.7861 C.ar    1  UNL1       -0.0064
     23 C          66.2162   94.3331   12.2563 C.ar    1  UNL1       -0.0029
     24 C          66.1387   94.5698   10.7771 C.ar    1  UNL1       -0.0003
     25 C          64.4171   87.6843   14.1834 C.3     1  UNL1        0.0886
     26 C          63.8209   86.3105   14.2688 C.3     1  UNL1        0.0748
     27 C          63.7704   85.4377   13.0499 C.3     1  UNL1        0.0432
     28 C          63.1742   84.0639   13.1352 C.ar    1  UNL1       -0.0234
     29 C          63.1236   83.1912   11.9164 C.ar    1  UNL1       -0.0045
     30 C          62.5275   81.8174   12.0018 C.ar    1  UNL1       -0.0003
     31 C          61.9818   81.3164   13.3061 C.ar    1  UNL1       -0.0003
     32 C          62.0323   82.1892   14.5250 C.ar    1  UNL1       -0.0032
     33 C          62.6285   83.5629   14.4396 C.ar    1  UNL1       -0.0103
     34 C          62.6791   84.4357   15.6585 C.3     1  UNL1        0.0953
     35 N          63.2753   85.8095   15.5731 N.3     1  UNL1       -0.2934
     36 H          64.0426   85.8397   16.2443 H       1  UNL1        0.1236
@<TRIPOS>BOND
     1    19    20   ar
     2    20    21   ar
     3    21    22   ar
     4    22    18    1
     5    18    16    1
     6    16    15    1
     7    15    14    1
     8    14    13    1
     9    13    12    1
    10    12     1    1
    11     1    25    1
    12    26    25    1
    13    26    27    1
    14    27    28    1
    15    28    29   ar
    16    29    30   ar
    17    30    31   ar
    18    31    32   ar
    19    32    33   ar
    20    33    34    1
    21    34    35    1
    22     2     1    1
    23     2     3    1
    24     3     4    1
    25     4     5    1
    26     5     6    1
    27     6     7   ar
    28     7     8   ar
    29     8     9   ar
    30     9    10   ar
    31    10    11   ar
    32    22    23   ar
    33    23    24   ar
    34    24    19   ar
    35    35    26    1
    36    11     2    1
    37    33    28   ar
    38    11     6   ar
    39    16    17    1
    40    35    36    1
@<TRIPOS>MOLECULE
*****
 36 40 0 0 0
SMALL
GASTEIGER

@<TRIPOS>ATOM
      1 N          60.9303   87.4981   10.2590 N.3     1  UNL1       -0.2679
      2 C          61.8218   86.3560    9.8706 C.3     1  UNL1        0.0978
      3 C          62.1459   86.1152    8.4260 C.3     1  UNL1        0.0224
      4 C          63.0374   84.9731    8.0377 C.3     1  UNL1        0.0065
      5 C          63.6048   84.0718    9.0939 C.3     1  UNL1        0.0277
      6 C          63.2807   84.3126   10.5385 C.ar    1  UNL1       -0.0073
      7 C          63.8481   83.4113   11.5948 C.ar    1  UNL1       -0.0015
      8 C          63.5240   83.6521   13.0394 C.ar    1  UNL1        0.0203
      9 C          62.6325   84.7942   13.4278 C.ar    1  UNL1        0.0985
     10 N          62.0651   85.6955   12.3716 N.ar    1  UNL1       -0.2471
     11 C          62.3892   85.4547   10.9269 C.ar    1  UNL1        0.0695
     12 C          59.7410   87.8426    9.4124 C.3     1  UNL1        0.0725
     13 C          59.8205   88.9761    8.4331 C.3     1  UNL1        0.0188
     14 C          59.3882   88.7708    7.0115 C.3     1  UNL1        0.0185
     15 C          59.0218   89.9508    6.1612 C.3     1  UNL1        0.0689
     16 N          60.0977   90.8233    5.5855 N.3     1  UNL1       -0.2937
     17 H          60.5179   91.3269    6.3667 H       1  UNL1        0.1236
     18 C          59.7558   91.8473    4.5441 C.3     1  UNL1        0.0956
     19 C          62.7695   92.9368    1.3849 C.ar    1  UNL1       -0.0000
     20 C          63.1321   91.9568    2.4611 C.ar    1  UNL1       -0.0003
     21 C          62.1275   91.5936    3.5142 C.ar    1  UNL1       -0.0029
     22 C          60.7604   92.2104    3.4910 C.ar    1  UNL1       -0.0064
     23 C          60.3979   93.1904    2.4148 C.ar    1  UNL1       -0.0029
     24 C          61.4024   93.5536    1.3618 C.ar    1  UNL1       -0.0003
     25 C          61.2280   88.2956   11.4940 C.3     1  UNL1        0.0886
     26 C          62.2343   89.4070   11.4446 C.3     1  UNL1        0.0748
     27 C          63.1002   89.6882   12.6367 C.3     1  UNL1        0.0432
     28 C          64.1065   90.7995   12.5874 C.ar    1  UNL1       -0.0234
     29 C          64.9724   91.0808   13.7794 C.ar    1  UNL1       -0.0045
     30 C          65.9786   92.1921   13.7300 C.ar    1  UNL1       -0.0003
     31 C          66.1190   93.0221   12.4886 C.ar    1  UNL1       -0.0003
     32 C          65.2531   92.7409   11.2965 C.ar    1  UNL1       -0.0032
     33 C          64.2469   91.6296   11.3459 C.ar    1  UNL1       -0.0103
     34 C          63.3809   91.3483   10.1538 C.3     1  UNL1        0.0953
     35 N          62.3747   90.2370   10.2032 N.3     1  UNL1       -0.2934
     36 H          62.6069   89.5956    9.4448 H       1  UNL1        0.1236
@<TRIPOS>BOND
     1    19    20   ar
     2    20    21   ar
     3    21    22   ar
     4    22    18    1
     5    18    16    1
     6    16    15    1
     7    15    14    1
     8    14    13    1
     9    13    12    1
    10    12     1    1
    11     1    25    1
    12    26    25    1
    13    26    27    1
    14    27    28    1
    15    28    29   ar
    16    29    30   ar
    17    30    31   ar
    18    31    32   ar
    19    32    33   ar
    20    33    34    1
    21    34    35    1
    22     2     1    1
    23     2     3    1
    24     3     4    1
    25     4     5    1
    26     5     6    1
    27     6     7   ar
    28     7     8   ar
    29     8     9   ar
    30     9    10   ar
    31    10    11   ar
    32    22    23   ar
    33    23    24   ar
    34    24    19   ar
    35    35    26    1
    36    11     2    1
    37    33    28   ar
    38    11     6   ar
    39    16    17    1
    40    35    36    1
@<TRIPOS>MOLECULE
*****
 36 40 0 0 0
SMALL
GASTEIGER

@<TRIPOS>ATOM
      1 N          63.3726   85.0961   12.6256 N.3     1  UNL1       -0.2679
      2 C          63.4670   83.7793   11.9133 C.3     1  UNL1        0.0978
      3 C          64.1509   83.6947   10.5810 C.3     1  UNL1        0.0224
      4 C          64.2453   82.3779    9.8687 C.3     1  UNL1        0.0065
      5 C          63.6557   81.1459   10.4887 C.3     1  UNL1        0.0277
      6 C          62.9718   81.2306   11.8210 C.ar    1  UNL1       -0.0073
      7 C          62.3822   79.9985   12.4411 C.ar    1  UNL1       -0.0015
      8 C          61.6982   80.0832   13.7734 C.ar    1  UNL1        0.0203
      9 C          61.6039   81.3999   14.4857 C.ar    1  UNL1        0.0985
     10 N          62.1934   82.6319   13.8657 N.ar    1  UNL1       -0.2471
     11 C          62.8774   82.5473   12.5333 C.ar    1  UNL1        0.0695
     12 C          62.6715   86.2518   11.9755 C.3     1  UNL1        0.0725
     13 C          61.4217   86.0192   11.1791 C.3     1  UNL1        0.0188
     14 C          61.4686   86.0618    9.6805 C.3     1  UNL1        0.0185
     15 C          60.2300   86.3893    8.9004 C.3     1  UNL1        0.0689
     16 N          60.2392   87.5250    7.9206 N.3     1  UNL1       -0.2937
     17 H          61.1280   87.4771    7.4226 H       1  UNL1        0.1236
     18 C          60.0907   88.9362    8.4068 C.3     1  UNL1        0.0956
     19 C          61.9024   90.1636   12.3389 C.ar    1  UNL1       -0.0000
     20 C          62.7594   90.0848   11.1103 C.ar    1  UNL1       -0.0003
     21 C          62.1555   89.6757    9.7996 C.ar    1  UNL1       -0.0029
     22 C          60.6947   89.3454    9.7175 C.ar    1  UNL1       -0.0064
     23 C          59.8377   89.4241   10.9461 C.ar    1  UNL1       -0.0029
     24 C          60.4416   89.8332   12.2568 C.ar    1  UNL1       -0.0003
     25 C          63.9793   85.2570   13.9879 C.3     1  UNL1        0.0886
     26 C          63.8682   86.5681   14.7083 C.3     1  UNL1        0.0748
     27 C          64.4675   87.8059   14.1095 C.3     1  UNL1        0.0432
     28 C          64.3564   89.1170   14.8299 C.ar    1  UNL1       -0.0234
     29 C          64.9557   90.3549   14.2311 C.ar    1  UNL1       -0.0045
     30 C          64.8446   91.6658   14.9515 C.ar    1  UNL1       -0.0003
     31 C          64.1343   91.7389   16.2707 C.ar    1  UNL1       -0.0003
     32 C          63.5351   90.5010   16.8694 C.ar    1  UNL1       -0.0032
     33 C          63.6461   89.1901   16.1490 C.ar    1  UNL1       -0.0103
     34 C          63.0469   87.9521   16.7478 C.3     1  UNL1        0.0953
     35 N          63.1579   86.6412   16.0274 N.3     1  UNL1       -0.2934
     36 H          62.2060   86.3113   15.8679 H       1  UNL1        0.1236
@<TRIPOS>BOND
     1    19    20   ar
     2    20    21   ar
     3    21    22   ar
     4    22    18    1
     5    18    16    1
     6    16    15    1
     7    15    14    1
     8    14    13    1
     9    13    12    1
    10    12     1    1
    11     1    25    1
    12    26    25    1
    13    26    27    1
    14    27    28    1
    15    28    29   ar
    16    29    30   ar
    17    30    31   ar
    18    31    32   ar
    19    32    33   ar
    20    33    34    1
    21    34    35    1
    22     2     1    1
    23     2     3    1
    24     3     4    1
    25     4     5    1
    26     5     6    1
    27     6     7   ar
    28     7     8   ar
    29     8     9   ar
    30     9    10   ar
    31    10    11   ar
    32    22    23   ar
    33    23    24   ar
    34    24    19   ar
    35    35    26    1
    36    11     2    1
    37    33    28   ar
    38    11     6   ar
    39    16    17    1
    40    35    36    1
@<TRIPOS>MOLECULE
*****
 36 40 0 0 0
SMALL
GASTEIGER

@<TRIPOS>ATOM
      1 N          63.1670   88.6724   13.0282 N.3     1  UNL1       -0.2679
      2 C          63.7047   87.4013   13.6157 C.3     1  UNL1        0.0978
      3 C          64.6283   87.4528   14.7965 C.3     1  UNL1        0.0224
      4 C          65.1661   86.1817   15.3839 C.3     1  UNL1        0.0065
      5 C          64.7803   84.8591   14.7906 C.3     1  UNL1        0.0277
      6 C          63.8567   84.8077   13.6098 C.ar    1  UNL1       -0.0073
      7 C          63.4708   83.4852   13.0164 C.ar    1  UNL1       -0.0015
      8 C          62.5473   83.4338   11.8356 C.ar    1  UNL1        0.0203
      9 C          62.0095   84.7049   11.2481 C.ar    1  UNL1        0.0985
     10 N          62.3953   86.0274   11.8415 N.ar    1  UNL1       -0.2471
     11 C          63.3189   86.0788   13.0223 C.ar    1  UNL1        0.0695
     12 C          62.9583   88.7847   11.5471 C.3     1  UNL1        0.0725
     13 C          62.2362   89.9705   10.9791 C.3     1  UNL1        0.0188
     14 C          60.7366   89.9974   10.9613 C.3     1  UNL1        0.0185
     15 C          59.9592   88.8170   11.4635 C.3     1  UNL1        0.0689
     16 N          59.8272   87.5888   10.6125 N.3     1  UNL1       -0.2937
     17 H          60.5150   86.9179   10.9550 H       1  UNL1        0.1236
     18 C          60.0151   87.6817    9.1273 C.3     1  UNL1        0.0956
     19 C          62.5282   84.6269    6.9820 C.ar    1  UNL1       -0.0000
     20 C          61.0688   84.7568    6.6605 C.ar    1  UNL1       -0.0003
     21 C          60.2311   85.7751    7.3756 C.ar    1  UNL1       -0.0029
     22 C          60.8528   86.6634    8.4121 C.ar    1  UNL1       -0.0064
     23 C          62.3122   86.5334    8.7336 C.ar    1  UNL1       -0.0029
     24 C          63.1499   85.5152    8.0185 C.ar    1  UNL1       -0.0003
     25 C          62.8379   89.8313   13.9219 C.3     1  UNL1        0.0886
     26 C          63.9405   90.6506   14.5244 C.3     1  UNL1        0.0748
     27 C          65.2531   90.7823   13.8105 C.3     1  UNL1        0.0432
     28 C          66.3558   91.6015   14.4131 C.ar    1  UNL1       -0.0234
     29 C          67.6683   91.7332   13.6992 C.ar    1  UNL1       -0.0045
     30 C          68.7709   92.5525   14.3018 C.ar    1  UNL1       -0.0003
     31 C          68.5609   93.2400   15.6183 C.ar    1  UNL1       -0.0003
     32 C          67.2483   93.1083   16.3322 C.ar    1  UNL1       -0.0032
     33 C          66.1457   92.2891   15.7296 C.ar    1  UNL1       -0.0103
     34 C          64.8330   92.1574   16.4435 C.3     1  UNL1        0.0953
     35 N          63.7305   91.3381   15.8409 N.3     1  UNL1       -0.2934
     36 H          62.9313   91.9609   15.7237 H       1  UNL1        0.1236
@<TRIPOS>BOND
     1    19    20   ar
     2    20    21   ar
     3    21    22   ar
     4    22    18    1
     5    18    16    1
     6    16    15    1
     7    15    14    1
     8    14    13    1
     9    13    12    1
    10    12     1    1
    11     1    25    1
    12    26    25    1
    13    26    27    1
    14    27    28    1
    15    28    29   ar
    16    29    30   ar
    17    30    31   ar
    18    31    32   ar
    19    32    33   ar
    20    33    34    1
    21    34    35    1
    22     2     1    1
    23     2     3    1
    24     3     4    1
    25     4     5    1
    26     5     6    1
    27     6     7   ar
    28     7     8   ar
    29     8     9   ar
    30     9    10   ar
    31    10    11   ar
    32    22    23   ar
    33    23    24   ar
    34    24    19   ar
    35    35    26    1
    36    11     2    1
    37    33    28   ar
    38    11     6   ar
    39    16    17    1
    40    35    36    1
@<TRIPOS>MOLECULE
*****
 36 40 0 0 0
SMALL
GASTEIGER

@<TRIPOS>ATOM
      1 N          63.1266   84.7319   14.4349 N.3     1  UNL1       -0.2679
      2 C          62.7094   83.3679   13.9708 C.3     1  UNL1        0.0978
      3 C          61.8329   82.5155   14.8398 C.3     1  UNL1        0.0224
      4 C          61.4158   81.1515   14.3757 C.3     1  UNL1        0.0065
      5 C          61.8752   80.6398   13.0426 C.3     1  UNL1        0.0277
      6 C          62.7517   81.4922   12.1736 C.ar    1  UNL1       -0.0073
      7 C          63.2111   80.9806   10.8404 C.ar    1  UNL1       -0.0015
      8 C          64.0876   81.8330    9.9715 C.ar    1  UNL1        0.0203
      9 C          64.5047   83.1970   10.4356 C.ar    1  UNL1        0.0985
     10 N          64.0454   83.7086   11.7687 N.ar    1  UNL1       -0.2471
     11 C          63.1688   82.8562   12.6377 C.ar    1  UNL1        0.0695
     12 C          62.7405   85.2091   15.8036 C.3     1  UNL1        0.0725
     13 C          63.5354   86.2911   16.4726 C.3     1  UNL1        0.0188
     14 C          62.8366   87.3470   17.2767 C.3     1  UNL1        0.0185
     15 C          63.0686   88.7974   16.9726 C.3     1  UNL1        0.0689
     16 N          63.5916   89.2075   15.6278 N.3     1  UNL1       -0.2937
     17 H          64.5428   88.8456   15.5589 H       1  UNL1        0.1236
     18 C          63.6531   90.6598   15.2580 C.3     1  UNL1        0.0956
     19 C          67.6380   92.7062   14.8310 C.ar    1  UNL1       -0.0000
     20 C          66.8412   92.8715   16.0911 C.ar    1  UNL1       -0.0003
     21 C          65.5129   92.1894   16.2334 C.ar    1  UNL1       -0.0029
     22 C          64.9814   91.3420   15.1157 C.ar    1  UNL1       -0.0064
     23 C          65.7782   91.1767   13.8556 C.ar    1  UNL1       -0.0029
     24 C          67.1065   91.8589   13.7132 C.ar    1  UNL1       -0.0003
     25 C          63.9298   85.6188   13.5304 C.3     1  UNL1        0.0886
     26 C          63.2372   86.6148   12.6481 C.3     1  UNL1        0.0748
     27 C          62.2934   86.1434   11.5818 C.3     1  UNL1        0.0432
     28 C          61.6008   87.1394   10.6995 C.ar    1  UNL1       -0.0234
     29 C          60.6570   86.6680    9.6332 C.ar    1  UNL1       -0.0045
     30 C          59.9645   87.6640    8.7509 C.ar    1  UNL1       -0.0003
     31 C          60.2157   89.1313    8.9350 C.ar    1  UNL1       -0.0003
     32 C          61.1594   89.6027   10.0014 C.ar    1  UNL1       -0.0032
     33 C          61.8520   88.6067   10.8836 C.ar    1  UNL1       -0.0103
     34 C          62.7958   89.0780   11.9500 C.3     1  UNL1        0.0953
     35 N          63.4884   88.0821   12.8322 N.3     1  UNL1       -0.2934
     36 H          63.2273   88.3074   13.7921 H       1  UNL1        0.1236
@<TRIPOS>BOND
     1    19    20   ar
     2    20    21   ar
     3    21    22   ar
     4    22    18    1
     5    18    16    1
     6    16    15    1
     7    15    14    1
     8    14    13    1
     9    13    12    1
    10    12     1    1
    11     1    25    1
    12    26    25    1
    13    26    27    1
    14    27    28    1
    15    28    29   ar
    16    29    30   ar
    17    30    31   ar
    18    31    32   ar
    19    32    33   ar
    20    33    34    1
    21    34    35    1
    22     2     1    1
    23     2     3    1
    24     3     4    1
    25     4     5    1
    26     5     6    1
    27     6     7   ar
    28     7     8   ar
    29     8     9   ar
    30     9    10   ar
    31    10    11   ar
    32    22    23   ar
    33    23    24   ar
    34    24    19   ar
    35    35    26    1
    36    11     2    1
    37    33    28   ar
    38    11     6   ar
    39    16    17    1
    40    35    36    1
@<TRIPOS>MOLECULE
*****
 36 40 0 0 0
SMALL
GASTEIGER

@<TRIPOS>ATOM
      1 N          63.3352   90.4987   11.8447 N.3     1  UNL1       -0.2679
      2 C          64.3975   91.5562   11.7888 C.3     1  UNL1        0.0978
      3 C          64.7827   92.1635   10.4725 C.3     1  UNL1        0.0224
      4 C          65.8451   93.2210   10.4166 C.3     1  UNL1        0.0065
      5 C          66.5222   93.6712   11.6770 C.3     1  UNL1        0.0277
      6 C          66.1371   93.0639   12.9934 C.ar    1  UNL1       -0.0073
      7 C          66.8142   93.5141   14.2539 C.ar    1  UNL1       -0.0015
      8 C          66.4291   92.9068   15.5702 C.ar    1  UNL1        0.0203
      9 C          65.3667   91.8493   15.6261 C.ar    1  UNL1        0.0985
     10 N          64.6895   91.3991   14.3657 N.ar    1  UNL1       -0.2471
     11 C          65.0747   92.0064   13.0493 C.ar    1  UNL1        0.0695
     12 C          62.6111   90.0961   10.5943 C.3     1  UNL1        0.0725
     13 C          61.1619   90.4429   10.4221 C.3     1  UNL1        0.0188
     14 C          60.2061   89.4228    9.8784 C.3     1  UNL1        0.0185
     15 C          60.0945   89.2141    8.3972 C.3     1  UNL1        0.0689
     16 N          59.0673   88.2688    7.8483 N.3     1  UNL1       -0.2937
     17 H          58.1648   88.5677    8.2178 H       1  UNL1        0.1236
     18 C          59.1806   86.7979    8.1197 C.3     1  UNL1        0.0956
     19 C          63.0441   84.6470    7.2849 C.ar    1  UNL1       -0.0000
     20 C          62.9224   85.5289    8.4922 C.ar    1  UNL1       -0.0003
     21 C          61.6346   86.2459    8.7704 C.ar    1  UNL1       -0.0029
     22 C          60.4685   86.0809    7.8414 C.ar    1  UNL1       -0.0064
     23 C          60.5903   85.1990    6.6342 C.ar    1  UNL1       -0.0029
     24 C          61.8781   84.4821    6.3559 C.ar    1  UNL1       -0.0003
     25 C          62.9969   89.8438   13.1511 C.3     1  UNL1        0.0886
     26 C          63.3877   88.4168   13.3981 C.3     1  UNL1        0.0748
     27 C          62.9013   87.3361   12.4787 C.3     1  UNL1        0.0432
     28 C          63.2921   85.9090   12.7257 C.ar    1  UNL1       -0.0234
     29 C          62.8057   84.8283   11.8062 C.ar    1  UNL1       -0.0045
     30 C          63.1966   83.4014   12.0533 C.ar    1  UNL1       -0.0003
     31 C          64.0738   83.0552   13.2197 C.ar    1  UNL1       -0.0003
     32 C          64.5602   84.1359   14.1391 C.ar    1  UNL1       -0.0032
     33 C          64.1694   85.5628   13.8921 C.ar    1  UNL1       -0.0103
     34 C          64.6558   86.6436   14.8116 C.3     1  UNL1        0.0953
     35 N          64.2649   88.0706   14.5645 N.3     1  UNL1       -0.2934
     36 H          65.1308   88.5971   14.4483 H       1  UNL1        0.1236
@<TRIPOS>BOND
     1    19    20   ar
     2    20    21   ar
     3    21    22   ar
     4    22    18    1
     5    18    16    1
     6    16    15    1
     7    15    14    1
     8    14    13    1
     9    13    12    1
    10    12     1    1
    11     1    25    1
    12    26    25    1
    13    26    27    1
    14    27    28    1
    15    28    29   ar
    16    29    30   ar
    17    30    31   ar
    18    31    32   ar
    19    32    33   ar
    20    33    34    1
    21    34    35    1
    22     2     1    1
    23     2     3    1
    24     3     4    1
    25     4     5    1
    26     5     6    1
    27     6     7   ar
    28     7     8   ar
    29     8     9   ar
    30     9    10   ar
    31    10    11   ar
    32    22    23   ar
    33    23    24   ar
    34    24    19   ar
    35    35    26    1
    36    11     2    1
    37    33    28   ar
    38    11     6   ar
    39    16    17    1
    40    35    36    1
