@<TRIPOS>MOLECULE
*****
 21 21 0 0 0
SMALL
GASTEIGER

@<TRIPOS>ATOM
      1 C          63.3159   90.9799   11.8933 C.3     1  UNL1        0.0759
      2 C          63.1984   91.5231   10.5001 C.3     1  UNL1        0.0242
      3 C          63.4333   90.4367   13.2866 C.3     1  UNL1        0.0242
      4 C          67.4136   92.2391   14.8298 C.3     1  UNL1        0.0521
      5 C          66.6898   92.2951   13.5172 C.ar    1  UNL1        0.0587
      6 C          65.3648   91.6095   13.3616 C.ar    1  UNL1        0.0120
      7 C          64.6409   91.6655   12.0490 C.ar    1  UNL1       -0.0040
      8 C          65.2421   92.4071   10.8920 C.ar    1  UNL1        0.0120
      9 C          66.5671   93.0927   11.0477 C.ar    1  UNL1        0.0587
     10 C          67.1684   93.8344    9.8907 C.3     1  UNL1        0.0521
     11 N          67.2910   93.0367   12.3603 N.ar    1  UNL1       -0.2540
     12 N          61.9908   90.2943   11.7378 N.am    1  UNL1       -0.3033
     13 C          61.8520   89.1355   10.7954 C.2     1  UNL1        0.2328
     14 O          63.0383   88.6624   10.0086 O.2     1  UNL1       -0.2742
     15 H          61.2123   90.6048   12.2541 H       1  UNL1        0.1496
     16 C          60.5270   88.4499   10.6398 C.3     1  UNL1        0.1330
     17 BR         59.3973   88.7815   11.5692 Br      1  UNL1       -0.0719
     18 C          60.3318   87.4326    9.5549 C.3     1  UNL1        0.0181
     19 C          59.7901   88.5003    8.6513 C.3     1  UNL1        0.0013
     20 C          60.8735   86.3649   10.4586 C.3     1  UNL1        0.0013
     21 C          60.1365   86.4153    8.4700 C.3     1  UNL1        0.0013
@<TRIPOS>BOND
     1     4     5    1
     2     5     6   ar
     3     6     7   ar
     4     7     1    1
     5     1     2    1
     6     1     3    1
     7     1    12    1
     8    12    13   am
     9    13    14    2
    10    13    16    1
    11    16    17    1
    12    16    18    1
    13    18    19    1
    14    18    20    1
    15    18    21    1
    16     7     8   ar
    17     8     9   ar
    18     9    10    1
    19     9    11   ar
    20    11     5   ar
    21    12    15    1
@<TRIPOS>MOLECULE
*****
 21 21 0 0 0
SMALL
GASTEIGER

@<TRIPOS>ATOM
      1 C          63.3213   90.9700   11.9040 C.3     1  UNL1        0.0759
      2 C          63.1904   91.5236   10.5162 C.3     1  UNL1        0.0242
      3 C          63.4523   90.4163   13.2919 C.3     1  UNL1        0.0242
      4 C          67.1745   93.8052    9.8756 C.3     1  UNL1        0.0521
      5 C          66.5707   93.0785   11.0407 C.ar    1  UNL1        0.0587
      6 C          65.2479   92.3876   10.8899 C.ar    1  UNL1        0.0120
      7 C          64.6442   91.6609   12.0549 C.ar    1  UNL1       -0.0040
      8 C          65.3633   91.6251   13.3708 C.ar    1  UNL1        0.0120
      9 C          66.6861   92.3160   13.5216 C.ar    1  UNL1        0.0587
     10 C          67.4052   92.2802   14.8376 C.3     1  UNL1        0.0521
     11 N          67.2898   93.0427   12.3566 N.ar    1  UNL1       -0.2540
     12 N          61.9985   90.2791   11.7532 N.am    1  UNL1       -0.3033
     13 C          61.8555   89.1335   10.7953 C.2     1  UNL1        0.2328
     14 O          63.0354   88.6790    9.9883 O.2     1  UNL1       -0.2742
     15 H          61.2241   90.5774   12.2829 H       1  UNL1        0.1496
     16 C          60.5327   88.4426   10.6445 C.3     1  UNL1        0.1330
     17 BR         59.4013   88.7784   11.5703 Br      1  UNL1       -0.0719
     18 C          60.3414   87.4160    9.5679 C.3     1  UNL1        0.0181
     19 C          60.8954   86.3593   10.4770 C.3     1  UNL1        0.0013
     20 C          59.7873   88.4726    8.6588 C.3     1  UNL1        0.0013
     21 C          60.1500   86.3892    8.4912 C.3     1  UNL1        0.0013
@<TRIPOS>BOND
     1     4     5    1
     2     5     6   ar
     3     6     7   ar
     4     7     1    1
     5     1     2    1
     6     1     3    1
     7     1    12    1
     8    12    13   am
     9    13    14    2
    10    13    16    1
    11    16    17    1
    12    16    18    1
    13    18    19    1
    14    18    20    1
    15    18    21    1
    16     7     8   ar
    17     8     9   ar
    18     9    10    1
    19     9    11   ar
    20    11     5   ar
    21    12    15    1
@<TRIPOS>MOLECULE
*****
 21 21 0 0 0
SMALL
GASTEIGER

@<TRIPOS>ATOM
      1 C          63.1467   89.5511   11.5132 C.3     1  UNL1        0.0759
      2 C          63.2552   88.2864   12.3124 C.3     1  UNL1        0.0242
      3 C          63.0382   90.8158   10.7140 C.3     1  UNL1        0.0242
      4 C          66.2205   93.3318   13.3181 C.3     1  UNL1        0.0521
      5 C          65.2471   92.2184   13.5684 C.ar    1  UNL1        0.0587
      6 C          64.6836   91.4415   12.4157 C.ar    1  UNL1        0.0120
      7 C          63.7102   90.3280   12.6660 C.ar    1  UNL1       -0.0040
      8 C          63.3002   89.9915   14.0691 C.ar    1  UNL1        0.0120
      9 C          63.8637   90.7684   15.2218 C.ar    1  UNL1        0.0587
     10 C          63.4538   90.4318   16.6250 C.3     1  UNL1        0.0521
     11 N          64.8372   91.8818   14.9715 N.ar    1  UNL1       -0.2540
     12 N          62.5832   88.7743   10.3604 N.am    1  UNL1       -0.3033
     13 C          61.1611   88.2988   10.4000 C.2     1  UNL1        0.2328
     14 O          60.3024   88.6002   11.5924 O.2     1  UNL1       -0.2742
     15 H          63.1468   88.5765    9.5777 H       1  UNL1        0.1496
     16 C          60.5976   87.5220    9.2472 C.3     1  UNL1        0.1330
     17 BR         60.8651   86.0506    9.1321 Br      1  UNL1       -0.0719
     18 C          59.7666   88.2166    8.2095 C.3     1  UNL1        0.0181
     19 C          60.3037   89.5407    8.6657 C.3     1  UNL1        0.0013
     20 C          59.2294   86.8925    7.7533 C.3     1  UNL1        0.0013
     21 C          58.9355   88.9113    7.1718 C.3     1  UNL1        0.0013
@<TRIPOS>BOND
     1     4     5    1
     2     5     6   ar
     3     6     7   ar
     4     7     1    1
     5     1     2    1
     6     1     3    1
     7     1    12    1
     8    12    13   am
     9    13    14    2
    10    13    16    1
    11    16    17    1
    12    16    18    1
    13    18    19    1
    14    18    20    1
    15    18    21    1
    16     7     8   ar
    17     8     9   ar
    18     9    10    1
    19     9    11   ar
    20    11     5   ar
    21    12    15    1
@<TRIPOS>MOLECULE
*****
 21 21 0 0 0
SMALL
GASTEIGER

@<TRIPOS>ATOM
      1 C          63.1589   89.5936   11.4937 C.3     1  UNL1        0.0759
      2 C          63.2522   88.3354   12.3049 C.3     1  UNL1        0.0242
      3 C          63.0656   90.8518   10.6825 C.3     1  UNL1        0.0242
      4 C          63.4850   90.5018   16.5995 C.3     1  UNL1        0.0521
      5 C          63.8915   90.8293   15.1933 C.ar    1  UNL1        0.0587
      6 C          63.3220   90.0477   14.0466 C.ar    1  UNL1        0.0120
      7 C          63.7285   90.3752   12.6404 C.ar    1  UNL1       -0.0040
      8 C          64.7046   91.4841   12.3808 C.ar    1  UNL1        0.0120
      9 C          65.2741   92.2656   13.5274 C.ar    1  UNL1        0.0587
     10 C          66.2503   93.3746   13.2678 C.3     1  UNL1        0.0521
     11 N          64.8676   91.9382   14.9337 N.ar    1  UNL1       -0.2540
     12 N          62.5893   88.8121   10.3471 N.am    1  UNL1       -0.3033
     13 C          61.1779   88.3080   10.4106 C.2     1  UNL1        0.2328
     14 O          60.3362   88.5855   11.6208 O.2     1  UNL1       -0.2742
     15 H          63.1418   88.6300    9.5528 H       1  UNL1        0.1496
     16 C          60.6083   87.5265    9.2640 C.3     1  UNL1        0.1330
     17 BR         60.8581   86.0508    9.1646 Br      1  UNL1       -0.0719
     18 C          59.7890   88.2207    8.2168 C.3     1  UNL1        0.0181
     19 C          59.2772   86.8946    7.7381 C.3     1  UNL1        0.0013
     20 C          60.3009   89.5469    8.6954 C.3     1  UNL1        0.0013
     21 C          58.9697   88.9150    7.1695 C.3     1  UNL1        0.0013
@<TRIPOS>BOND
     1     4     5    1
     2     5     6   ar
     3     6     7   ar
     4     7     1    1
     5     1     2    1
     6     1     3    1
     7     1    12    1
     8    12    13   am
     9    13    14    2
    10    13    16    1
    11    16    17    1
    12    16    18    1
    13    18    19    1
    14    18    20    1
    15    18    21    1
    16     7     8   ar
    17     8     9   ar
    18     9    10    1
    19     9    11   ar
    20    11     5   ar
    21    12    15    1
@<TRIPOS>MOLECULE
*****
 21 21 0 0 0
SMALL
GASTEIGER

@<TRIPOS>ATOM
      1 C          61.9919   85.7527   10.4461 C.3     1  UNL1        0.0759
      2 C          62.6953   85.4593    9.1542 C.3     1  UNL1        0.0242
      3 C          61.2885   86.0460   11.7380 C.3     1  UNL1        0.0242
      4 C          59.2005   88.8088    7.3047 C.3     1  UNL1        0.0521
      5 C          60.2422   88.6487    8.3721 C.ar    1  UNL1        0.0587
      6 C          60.5962   87.2808    8.8754 C.ar    1  UNL1        0.0120
      7 C          61.6379   87.1207    9.9428 C.ar    1  UNL1       -0.0040
      8 C          62.3256   88.3285   10.5068 C.ar    1  UNL1        0.0120
      9 C          61.9715   89.6965   10.0035 C.ar    1  UNL1        0.0587
     10 C          62.6592   90.9044   10.5676 C.3     1  UNL1        0.0521
     11 N          60.9298   89.8565    8.9361 N.ar    1  UNL1       -0.2540
     12 N          62.3459   84.3847   10.9494 N.am    1  UNL1       -0.3033
     13 C          63.1249   84.2322   12.2222 C.2     1  UNL1        0.2328
     14 O          63.5499   85.4477   12.9916 O.2     1  UNL1       -0.2742
     15 H          62.0670   83.5870   10.4444 H       1  UNL1        0.1496
     16 C          63.4789   82.8643   12.7256 C.3     1  UNL1        0.1330
     17 BR         64.8673   82.3302   12.5329 Br      1  UNL1       -0.0719
     18 C          62.4445   82.0303   13.4216 C.3     1  UNL1        0.0181
     19 C          62.3561   83.0529   14.5154 C.3     1  UNL1        0.0013
     20 C          62.5328   81.0078   12.3278 C.3     1  UNL1        0.0013
     21 C          61.4100   81.1964   14.1177 C.3     1  UNL1        0.0013
@<TRIPOS>BOND
     1     4     5    1
     2     5     6   ar
     3     6     7   ar
     4     7     1    1
     5     1     2    1
     6     1     3    1
     7     1    12    1
     8    12    13   am
     9    13    14    2
    10    13    16    1
    11    16    17    1
    12    16    18    1
    13    18    19    1
    14    18    20    1
    15    18    21    1
    16     7     8   ar
    17     8     9   ar
    18     9    10    1
    19     9    11   ar
    20    11     5   ar
    21    12    15    1
@<TRIPOS>MOLECULE
*****
 21 21 0 0 0
SMALL
GASTEIGER

@<TRIPOS>ATOM
      1 C          62.0120   85.7364   10.4629 C.3     1  UNL1        0.0759
      2 C          62.7341   85.4508    9.1796 C.3     1  UNL1        0.0242
      3 C          61.2899   86.0219   11.7463 C.3     1  UNL1        0.0242
      4 C          62.6607   90.8904   10.5875 C.3     1  UNL1        0.0521
      5 C          61.9797   89.6801   10.0205 C.ar    1  UNL1        0.0587
      6 C          62.3363   88.3134   10.5252 C.ar    1  UNL1        0.0120
      7 C          61.6553   87.1032    9.9582 C.ar    1  UNL1       -0.0040
      8 C          60.6177   87.2597    8.8864 C.ar    1  UNL1        0.0120
      9 C          60.2611   88.6264    8.3816 C.ar    1  UNL1        0.0587
     10 C          59.2234   88.7829    7.3098 C.3     1  UNL1        0.0521
     11 N          60.9421   89.8366    8.9487 N.ar    1  UNL1       -0.2540
     12 N          62.3686   84.3697   10.9678 N.am    1  UNL1       -0.3033
     13 C          63.1515   84.2202   12.2385 C.2     1  UNL1        0.2328
     14 O          63.5777   85.4374   13.0045 O.2     1  UNL1       -0.2742
     15 H          62.0889   83.5707   10.4650 H       1  UNL1        0.1496
     16 C          63.5081   82.8534   12.7434 C.3     1  UNL1        0.1330
     17 BR         64.9080   82.3377   12.5867 Br      1  UNL1       -0.0719
     18 C          62.4650   82.0025   13.4048 C.3     1  UNL1        0.0181
     19 C          62.3467   83.0078   14.5117 C.3     1  UNL1        0.0013
     20 C          62.5832   80.9971   12.2979 C.3     1  UNL1        0.0013
     21 C          61.4217   81.1515   14.0663 C.3     1  UNL1        0.0013
@<TRIPOS>BOND
     1     4     5    1
     2     5     6   ar
     3     6     7   ar
     4     7     1    1
     5     1     2    1
     6     1     3    1
     7     1    12    1
     8    12    13   am
     9    13    14    2
    10    13    16    1
    11    16    17    1
    12    16    18    1
    13    18    19    1
    14    18    20    1
    15    18    21    1
    16     7     8   ar
    17     8     9   ar
    18     9    10    1
    19     9    11   ar
    20    11     5   ar
    21    12    15    1
@<TRIPOS>MOLECULE
*****
 21 21 0 0 0
SMALL
GASTEIGER

@<TRIPOS>ATOM
      1 C          62.5726   85.1327   10.6560 C.3     1  UNL1        0.0759
      2 C          63.6010   84.2552   10.0060 C.3     1  UNL1        0.0242
      3 C          61.5443   86.0102   11.3059 C.3     1  UNL1        0.0242
      4 C          58.8479   87.3382    7.7816 C.3     1  UNL1        0.0521
      5 C          60.0613   86.4625    7.8856 C.ar    1  UNL1        0.0587
      6 C          60.7103   86.2354    9.2187 C.ar    1  UNL1        0.0120
      7 C          61.9236   85.3597    9.3228 C.ar    1  UNL1       -0.0040
      8 C          62.4880   84.7110    8.0937 C.ar    1  UNL1        0.0120
      9 C          61.8390   84.9380    6.7606 C.ar    1  UNL1        0.0587
     10 C          62.4034   84.2892    5.5315 C.3     1  UNL1        0.0521
     11 N          60.6256   85.8137    6.6566 N.ar    1  UNL1       -0.2540
     12 N          63.2215   84.9058   11.9891 N.am    1  UNL1       -0.3033
     13 C          62.9957   83.6175   12.7236 C.2     1  UNL1        0.2328
     14 O          62.1209   82.5562   12.1249 O.2     1  UNL1       -0.2742
     15 H          63.7957   85.6023   12.3821 H       1  UNL1        0.1496
     16 C          63.6446   83.3905   14.0568 C.3     1  UNL1        0.1330
     17 BR         64.1501   82.0264   14.4224 Br      1  UNL1       -0.0719
     18 C          63.7881   84.5277   15.0243 C.3     1  UNL1        0.0181
     19 C          65.2007   84.7393   14.5662 C.3     1  UNL1        0.0013
     20 C          62.3756   84.3161   15.4825 C.3     1  UNL1        0.0013
     21 C          63.9317   85.6650   15.9919 C.3     1  UNL1        0.0013
@<TRIPOS>BOND
     1     4     5    1
     2     5     6   ar
     3     6     7   ar
     4     7     1    1
     5     1     2    1
     6     1     3    1
     7     1    12    1
     8    12    13   am
     9    13    14    2
    10    13    16    1
    11    16    17    1
    12    16    18    1
    13    18    19    1
    14    18    20    1
    15    18    21    1
    16     7     8   ar
    17     8     9   ar
    18     9    10    1
    19     9    11   ar
    20    11     5   ar
    21    12    15    1
@<TRIPOS>MOLECULE
*****
 21 21 0 0 0
SMALL
GASTEIGER

@<TRIPOS>ATOM
      1 C          63.2169   90.8599   11.9410 C.3     1  UNL1        0.0759
      2 C          62.9529   90.6003   13.3946 C.3     1  UNL1        0.0242
      3 C          63.4809   91.1194   10.4875 C.3     1  UNL1        0.0242
      4 C          58.4208   88.9272   12.4536 C.3     1  UNL1        0.0521
      5 C          59.7826   88.8741   11.8270 C.ar    1  UNL1        0.0587
      6 C          60.8188   89.8935   12.1973 C.ar    1  UNL1        0.0120
      7 C          62.1806   89.8404   11.5707 C.ar    1  UNL1       -0.0040
      8 C          62.5063   88.7679   10.5739 C.ar    1  UNL1        0.0120
      9 C          61.4701   87.7485   10.2037 C.ar    1  UNL1        0.0587
     10 C          61.7958   86.6760    9.2068 C.3     1  UNL1        0.0521
     11 N          60.1083   87.8016   10.8302 N.ar    1  UNL1       -0.2540
     12 N          64.2530   91.8793   12.3113 N.am    1  UNL1       -0.3033
     13 C          65.2629   91.5696   13.3764 C.2     1  UNL1        0.2328
     14 O          65.2365   90.2405   14.0712 O.2     1  UNL1       -0.2742
     15 H          64.2703   92.7516   11.8553 H       1  UNL1        0.1496
     16 C          66.2991   92.5890   13.7466 C.3     1  UNL1        0.1330
     17 BR         66.3930   93.8753   12.9807 Br      1  UNL1       -0.0719
     18 C          67.2413   92.3221   14.8828 C.3     1  UNL1        0.0181
     19 C          66.1826   92.7413   15.8592 C.3     1  UNL1        0.0013
     20 C          68.3000   91.9030   13.9063 C.3     1  UNL1        0.0013
     21 C          68.1836   92.0552   16.0190 C.3     1  UNL1        0.0013
@<TRIPOS>BOND
     1     4     5    1
     2     5     6   ar
     3     6     7   ar
     4     7     1    1
     5     1     2    1
     6     1     3    1
     7     1    12    1
     8    12    13   am
     9    13    14    2
    10    13    16    1
    11    16    17    1
    12    16    18    1
    13    18    19    1
    14    18    20    1
    15    18    21    1
    16     7     8   ar
    17     8     9   ar
    18     9    10    1
    19     9    11   ar
    20    11     5   ar
    21    12    15    1
@<TRIPOS>MOLECULE
*****
 21 21 0 0 0
SMALL
GASTEIGER

@<TRIPOS>ATOM
      1 C          60.3211   92.9674   -1.0332 C.3     1  UNL1        0.0759
      2 C          60.8820   93.9535   -2.0144 C.3     1  UNL1        0.0242
      3 C          59.7601   91.9813   -0.0519 C.3     1  UNL1        0.0242
      4 C          65.0372   95.0063   -0.2578 C.3     1  UNL1        0.0521
      5 C          63.9376   94.0780    0.1657 C.ar    1  UNL1        0.0587
      6 C          62.6792   93.9868   -0.6454 C.ar    1  UNL1        0.0120
      7 C          61.5796   93.0586   -0.2220 C.ar    1  UNL1       -0.0040
      8 C          61.7384   92.2216    1.0126 C.ar    1  UNL1        0.0120
      9 C          62.9969   92.3129    1.8237 C.ar    1  UNL1        0.0587
     10 C          63.1558   91.4759    3.0583 C.3     1  UNL1        0.0521
     11 N          64.0965   93.2411    1.4002 N.ar    1  UNL1       -0.2540
     12 N          59.0626   92.8762   -1.8443 N.am    1  UNL1       -0.3033
     13 C          57.9037   93.7768   -1.5345 C.2     1  UNL1        0.2328
     14 O          58.0033   94.7687   -0.4137 O.2     1  UNL1       -0.2742
     15 H          58.9972   92.2252   -2.5799 H       1  UNL1        0.1496
     16 C          56.6453   93.6856   -2.3456 C.3     1  UNL1        0.1330
     17 BR         55.5320   94.6642   -2.1154 Br      1  UNL1       -0.0719
     18 C          56.5001   92.6158   -3.3869 C.3     1  UNL1        0.0181
     19 C          57.0111   93.5631   -4.4315 C.3     1  UNL1        0.0013
     20 C          55.9890   91.6684   -2.3423 C.3     1  UNL1        0.0013
     21 C          56.3549   91.5459   -4.4283 C.3     1  UNL1        0.0013
@<TRIPOS>BOND
     1     4     5    1
     2     5     6   ar
     3     6     7   ar
     4     7     1    1
     5     1     2    1
     6     1     3    1
     7     1    12    1
     8    12    13   am
     9    13    14    2
    10    13    16    1
    11    16    17    1
    12    16    18    1
    13    18    19    1
    14    18    20    1
    15    18    21    1
    16     7     8   ar
    17     8     9   ar
    18     9    10    1
    19     9    11   ar
    20    11     5   ar
    21    12    15    1
