@<TRIPOS>MOLECULE
*****
 44 51 0 0 0
SMALL
GASTEIGER

@<TRIPOS>ATOM
      1 C          60.1355   89.9057    8.1628 C.3     1  UNL1        0.0311
      2 C          60.8409   89.7839    9.4810 C.ar    1  UNL1       -0.0188
      3 C          60.9797   90.9833   10.3710 C.ar    1  UNL1        0.0325
      4 C          61.6850   90.8615   11.6892 C.ar    1  UNL1        0.1364
      5 O          61.8238   92.0610   12.5792 O.3     1  UNL1       -0.5054
      6 C          62.2516   89.5403   12.1174 C.ar    1  UNL1        0.0727
      7 C          62.9569   89.4185   13.4356 C.2     1  UNL1        0.2014
      8 O          63.0957   90.6179   14.3256 O.2     1  UNL1       -0.2864
      9 C          63.5234   88.0973   13.8638 C.ar    1  UNL1        0.0729
     10 C          64.2288   87.9755   15.1820 C.ar    1  UNL1        0.1397
     11 O          64.3676   89.1748   16.0720 O.3     1  UNL1       -0.5053
     12 C          64.7953   86.6542   15.6102 C.ar    1  UNL1        0.0733
     13 C          64.6565   85.4548   14.7202 C.ar    1  UNL1        0.1367
     14 O          65.2231   84.1335   15.1484 O.3     1  UNL1       -0.5054
     15 C          63.9512   85.5766   13.4020 C.ar    1  UNL1        0.0369
     16 C          63.8124   84.3771   12.5120 C.ar    1  UNL1        0.0369
     17 C          64.3789   83.0559   12.9402 C.ar    1  UNL1        0.1367
     18 O          65.0842   82.9341   14.2584 O.3     1  UNL1       -0.5054
     19 C          64.2401   81.8565   12.0502 C.ar    1  UNL1        0.0733
     20 C          63.5347   81.9783   10.7320 C.ar    1  UNL1        0.1397
     21 O          63.3959   80.7788    9.8420 O.3     1  UNL1       -0.5053
     22 C          62.9682   83.2995   10.3038 C.ar    1  UNL1        0.0729
     23 C          62.2629   83.4213    8.9856 C.2     1  UNL1        0.2014
     24 O          62.1240   82.2219    8.0956 O.2     1  UNL1       -0.2864
     25 C          61.6963   84.7425    8.5574 C.ar    1  UNL1        0.0727
     26 C          60.9910   84.8643    7.2392 C.ar    1  UNL1        0.1364
     27 O          60.8522   83.6649    6.3492 O.3     1  UNL1       -0.5054
     28 C          60.4244   86.1856    6.8110 C.ar    1  UNL1        0.0325
     29 C          60.5633   87.3850    7.7010 C.ar    1  UNL1       -0.0188
     30 C          59.9967   88.7063    7.2728 C.3     1  UNL1        0.0311
     31 C          61.2686   87.2632    9.0192 C.ar    1  UNL1       -0.0040
     32 C          61.4074   88.4627    9.9092 C.ar    1  UNL1       -0.0040
     33 C          62.1127   88.3409   11.2274 C.ar    1  UNL1        0.0057
     34 C          62.6793   87.0196   11.6556 C.ar    1  UNL1        0.0005
     35 C          63.3846   86.8978   12.9738 C.ar    1  UNL1        0.0090
     36 C          62.5405   85.8202   10.7656 C.ar    1  UNL1        0.0005
     37 C          61.8351   85.9420    9.4474 C.ar    1  UNL1        0.0057
     38 C          63.1070   84.4989   11.1938 C.ar    1  UNL1        0.0090
     39 H          61.4699   92.8863   12.3117 H       1  UNL1        0.2922
     40 H          64.0137   90.0002   15.8045 H       1  UNL1        0.2922
     41 H          65.6637   84.0573   15.9718 H       1  UNL1        0.2922
     42 H          65.1709   83.6833   14.8143 H       1  UNL1        0.2922
     43 H          63.7498   79.9535   10.1095 H       1  UNL1        0.2922
     44 H          61.2061   82.8396    6.6166 H       1  UNL1        0.2922
@<TRIPOS>BOND
     1     1     2    1
     2     2     3   ar
     3     3     4   ar
     4     4     5    1
     5     4     6   ar
     6     6     7    1
     7     7     8    2
     8     7     9    1
     9     9    10   ar
    10    10    11    1
    11    10    12   ar
    12    12    13   ar
    13    13    14    1
    14    13    15   ar
    15    15    16   ar
    16    16    17   ar
    17    17    18    1
    18    17    19   ar
    19    19    20   ar
    20    20    21    1
    21    20    22   ar
    22    22    23    1
    23    23    24    2
    24    23    25    1
    25    25    26   ar
    26    26    27    1
    27    26    28   ar
    28    28    29   ar
    29    29    30    1
    30    29    31   ar
    31    31    32   ar
    32    32    33   ar
    33    33    34   ar
    34    34    35   ar
    35    34    36   ar
    36    36    37   ar
    37    36    38   ar
    38    32     2   ar
    39    33     6   ar
    40    35     9   ar
    41    35    15   ar
    42    38    16   ar
    43    38    22   ar
    44    37    25   ar
    45    37    31   ar
    46     5    39    1
    47    11    40    1
    48    14    41    1
    49    18    42    1
    50    21    43    1
    51    27    44    1
@<TRIPOS>MOLECULE
*****
 44 51 0 0 0
SMALL
GASTEIGER

@<TRIPOS>ATOM
      1 C          60.0784   88.7034    7.2653 C.3     1  UNL1        0.0311
      2 C          60.6257   87.3787    7.7075 C.ar    1  UNL1       -0.0188
      3 C          60.4900   86.1772    6.8200 C.ar    1  UNL1        0.0325
      4 C          61.0373   84.8524    7.2621 C.ar    1  UNL1        0.1364
      5 O          60.9016   83.6508    6.3745 O.3     1  UNL1       -0.5054
      6 C          61.7204   84.7293    8.5919 C.ar    1  UNL1        0.0727
      7 C          62.2678   83.4046    9.0340 C.2     1  UNL1        0.2014
      8 O          62.1321   82.2030    8.1465 O.2     1  UNL1       -0.2864
      9 C          62.9508   83.2814   10.3638 C.ar    1  UNL1        0.0729
     10 C          63.4982   81.9567   10.8059 C.ar    1  UNL1        0.1397
     11 O          63.3625   80.7551    9.9184 O.3     1  UNL1       -0.5053
     12 C          64.1813   81.8336   12.1357 C.ar    1  UNL1        0.0733
     13 C          64.3170   83.0351   13.0233 C.ar    1  UNL1        0.1367
     14 O          65.0000   82.9120   14.3531 O.3     1  UNL1       -0.5054
     15 C          63.7696   84.3598   12.5811 C.ar    1  UNL1        0.0369
     16 C          63.9053   85.5614   13.4687 C.ar    1  UNL1        0.0369
     17 C          64.5884   85.4383   14.7985 C.ar    1  UNL1        0.1367
     18 O          65.1358   84.1136   15.2406 O.3     1  UNL1       -0.5054
     19 C          64.7241   86.6398   15.6860 C.ar    1  UNL1        0.0733
     20 C          64.1768   87.9646   15.2438 C.ar    1  UNL1        0.1397
     21 O          64.3125   89.1662   16.1315 O.3     1  UNL1       -0.5053
     22 C          63.4937   88.0877   13.9141 C.ar    1  UNL1        0.0729
     23 C          62.9464   89.4124   13.4719 C.2     1  UNL1        0.2014
     24 O          63.0821   90.6140   14.3595 O.2     1  UNL1       -0.2864
     25 C          62.2633   89.5356   12.1422 C.ar    1  UNL1        0.0727
     26 C          61.7159   90.8603   11.7000 C.ar    1  UNL1        0.1364
     27 O          61.8517   92.0619   12.5876 O.3     1  UNL1       -0.5054
     28 C          61.0329   90.9834   10.3702 C.ar    1  UNL1        0.0325
     29 C          60.8972   89.7819    9.4827 C.ar    1  UNL1       -0.0188
     30 C          60.2141   89.9050    8.1529 C.3     1  UNL1        0.0311
     31 C          61.4445   88.4572    9.9249 C.ar    1  UNL1       -0.0040
     32 C          61.3088   87.2556    9.0372 C.ar    1  UNL1       -0.0040
     33 C          61.8561   85.9308    9.4794 C.ar    1  UNL1        0.0057
     34 C          62.5392   85.8077   10.8092 C.ar    1  UNL1        0.0005
     35 C          63.0866   84.4830   11.2514 C.ar    1  UNL1        0.0090
     36 C          62.6749   87.0093   11.6968 C.ar    1  UNL1        0.0005
     37 C          62.1276   88.3340   11.2546 C.ar    1  UNL1        0.0057
     38 C          63.3580   86.8862   13.0266 C.ar    1  UNL1        0.0090
     39 H          60.4749   83.7278    5.5439 H       1  UNL1        0.2922
     40 H          62.9358   80.8320    9.0877 H       1  UNL1        0.2922
     41 H          65.3420   82.0845   14.6293 H       1  UNL1        0.2922
     42 H          65.0510   83.3630   14.6862 H       1  UNL1        0.2922
     43 H          64.7392   89.0892   16.9621 H       1  UNL1        0.2922
     44 H          62.2783   91.9850   13.4182 H       1  UNL1        0.2922
@<TRIPOS>BOND
     1     1     2    1
     2     2     3   ar
     3     3     4   ar
     4     4     5    1
     5     4     6   ar
     6     6     7    1
     7     7     8    2
     8     7     9    1
     9     9    10   ar
    10    10    11    1
    11    10    12   ar
    12    12    13   ar
    13    13    14    1
    14    13    15   ar
    15    15    16   ar
    16    16    17   ar
    17    17    18    1
    18    17    19   ar
    19    19    20   ar
    20    20    21    1
    21    20    22   ar
    22    22    23    1
    23    23    24    2
    24    23    25    1
    25    25    26   ar
    26    26    27    1
    27    26    28   ar
    28    28    29   ar
    29    29    30    1
    30    29    31   ar
    31    31    32   ar
    32    32    33   ar
    33    33    34   ar
    34    34    35   ar
    35    34    36   ar
    36    36    37   ar
    37    36    38   ar
    38    32     2   ar
    39    33     6   ar
    40    35     9   ar
    41    35    15   ar
    42    38    16   ar
    43    38    22   ar
    44    37    25   ar
    45    37    31   ar
    46     5    39    1
    47    11    40    1
    48    14    41    1
    49    18    42    1
    50    21    43    1
    51    27    44    1
@<TRIPOS>MOLECULE
*****
 44 51 0 0 0
SMALL
GASTEIGER

@<TRIPOS>ATOM
      1 C          64.9305   82.8962   14.3810 C.3     1  UNL1        0.0311
      2 C          64.2590   83.0267   13.0460 C.ar    1  UNL1       -0.0188
      3 C          64.1070   81.8242   12.1623 C.ar    1  UNL1        0.0325
      4 C          63.4355   81.9547   10.8273 C.ar    1  UNL1        0.1364
      5 O          63.2835   80.7522    9.9436 O.3     1  UNL1       -0.5054
      6 C          62.9161   83.2875   10.3761 C.ar    1  UNL1        0.0727
      7 C          62.2447   83.4180    9.0411 C.2     1  UNL1        0.2014
      8 O          62.0926   82.2156    8.1574 O.2     1  UNL1       -0.2864
      9 C          61.7253   84.7508    8.5898 C.ar    1  UNL1        0.0729
     10 C          61.0538   84.8813    7.2549 C.ar    1  UNL1        0.1397
     11 O          60.9018   83.6788    6.3711 O.3     1  UNL1       -0.5053
     12 C          60.5344   86.2142    6.8036 C.ar    1  UNL1        0.0733
     13 C          60.6864   87.4166    7.6874 C.ar    1  UNL1        0.1367
     14 O          60.1670   88.7496    7.2361 O.3     1  UNL1       -0.5054
     15 C          61.3579   87.2862    9.0223 C.ar    1  UNL1        0.0369
     16 C          61.5099   88.4887    9.9061 C.ar    1  UNL1        0.0369
     17 C          60.9905   89.8216    9.4548 C.ar    1  UNL1        0.1367
     18 O          60.3191   89.9520    8.1199 O.3     1  UNL1       -0.5054
     19 C          61.1426   91.0240   10.3386 C.ar    1  UNL1        0.0733
     20 C          61.8140   90.8936   11.6735 C.ar    1  UNL1        0.1397
     21 O          61.9661   92.0961   12.5573 O.3     1  UNL1       -0.5053
     22 C          62.3334   89.5607   12.1248 C.ar    1  UNL1        0.0729
     23 C          63.0049   89.4303   13.4597 C.2     1  UNL1        0.2014
     24 O          63.1569   90.6327   14.3435 O.2     1  UNL1       -0.2864
     25 C          63.5243   88.0974   13.9110 C.ar    1  UNL1        0.0727
     26 C          64.1957   87.9670   15.2460 C.ar    1  UNL1        0.1364
     27 O          64.3478   89.1694   16.1297 O.3     1  UNL1       -0.5054
     28 C          64.7151   86.6340   15.6972 C.ar    1  UNL1        0.0325
     29 C          64.5631   85.4316   14.8135 C.ar    1  UNL1       -0.0188
     30 C          65.0825   84.0987   15.2647 C.3     1  UNL1        0.0311
     31 C          63.8916   85.5620   13.4785 C.ar    1  UNL1       -0.0040
     32 C          63.7396   84.3595   12.5947 C.ar    1  UNL1       -0.0040
     33 C          63.0682   84.4900   11.2598 C.ar    1  UNL1        0.0057
     34 C          62.5487   85.8229   10.8086 C.ar    1  UNL1        0.0005
     35 C          61.8773   85.9533    9.4736 C.ar    1  UNL1        0.0090
     36 C          62.7008   87.0253   11.6923 C.ar    1  UNL1        0.0005
     37 C          63.3722   86.8949   13.0272 C.ar    1  UNL1        0.0057
     38 C          62.1814   88.3583   11.2410 C.ar    1  UNL1        0.0090
     39 H          63.6079   79.9196   10.2254 H       1  UNL1        0.2922
     40 H          61.2262   82.8462    6.6530 H       1  UNL1        0.2922
     41 H          59.7476   88.8311    6.4022 H       1  UNL1        0.2922
     42 H          60.2241   89.2009    7.5678 H       1  UNL1        0.2922
     43 H          61.6416   92.9287   12.2754 H       1  UNL1        0.2922
     44 H          64.0233   90.0020   15.8478 H       1  UNL1        0.2922
@<TRIPOS>BOND
     1     1     2    1
     2     2     3   ar
     3     3     4   ar
     4     4     5    1
     5     4     6   ar
     6     6     7    1
     7     7     8    2
     8     7     9    1
     9     9    10   ar
    10    10    11    1
    11    10    12   ar
    12    12    13   ar
    13    13    14    1
    14    13    15   ar
    15    15    16   ar
    16    16    17   ar
    17    17    18    1
    18    17    19   ar
    19    19    20   ar
    20    20    21    1
    21    20    22   ar
    22    22    23    1
    23    23    24    2
    24    23    25    1
    25    25    26   ar
    26    26    27    1
    27    26    28   ar
    28    28    29   ar
    29    29    30    1
    30    29    31   ar
    31    31    32   ar
    32    32    33   ar
    33    33    34   ar
    34    34    35   ar
    35    34    36   ar
    36    36    37   ar
    37    36    38   ar
    38    32     2   ar
    39    33     6   ar
    40    35     9   ar
    41    35    15   ar
    42    38    16   ar
    43    38    22   ar
    44    37    25   ar
    45    37    31   ar
    46     5    39    1
    47    11    40    1
    48    14    41    1
    49    18    42    1
    50    21    43    1
    51    27    44    1
@<TRIPOS>MOLECULE
*****
 44 51 0 0 0
SMALL
GASTEIGER

@<TRIPOS>ATOM
      1 C          65.0824   84.1047   15.2691 C.3     1  UNL1        0.0311
      2 C          64.5624   85.4375   14.8181 C.ar    1  UNL1       -0.0188
      3 C          64.7135   86.6397   15.7023 C.ar    1  UNL1        0.0325
      4 C          64.1935   87.9724   15.2513 C.ar    1  UNL1        0.1364
      5 O          64.3446   89.1747   16.1355 O.3     1  UNL1       -0.5054
      6 C          63.5226   88.1030   13.9161 C.ar    1  UNL1        0.0727
      7 C          63.0026   89.4357   13.4651 C.2     1  UNL1        0.2014
      8 O          63.1537   90.6380   14.3492 O.2     1  UNL1       -0.2864
      9 C          62.3317   89.5663   12.1299 C.ar    1  UNL1        0.0729
     10 C          61.8117   90.8990   11.6789 C.ar    1  UNL1        0.1397
     11 O          61.9627   92.1013   12.5631 O.3     1  UNL1       -0.5053
     12 C          61.1407   91.0295   10.3437 C.ar    1  UNL1        0.0733
     13 C          60.9897   89.8273    9.4595 C.ar    1  UNL1        0.1367
     14 O          60.3187   89.9578    8.1243 O.3     1  UNL1       -0.5054
     15 C          61.5096   88.4945    9.9105 C.ar    1  UNL1        0.0369
     16 C          61.3586   87.2922    9.0263 C.ar    1  UNL1        0.0369
     17 C          60.6876   87.4228    7.6911 C.ar    1  UNL1        0.1367
     18 O          60.1677   88.7555    7.2401 O.3     1  UNL1       -0.5054
     19 C          60.5366   86.2205    6.8070 C.ar    1  UNL1        0.0733
     20 C          61.0565   84.8878    7.2580 C.ar    1  UNL1        0.1397
     21 O          60.9055   83.6855    6.3737 O.3     1  UNL1       -0.5053
     22 C          61.7275   84.7573    8.5931 C.ar    1  UNL1        0.0729
     23 C          62.2474   83.4245    9.0441 C.2     1  UNL1        0.2014
     24 O          62.0964   82.2223    8.1600 O.2     1  UNL1       -0.2864
     25 C          62.9184   83.2940   10.3793 C.ar    1  UNL1        0.0727
     26 C          63.4383   81.9612   10.8303 C.ar    1  UNL1        0.1364
     27 O          63.2873   80.7590    9.9462 O.3     1  UNL1       -0.5054
     28 C          64.1093   81.8307   12.1656 C.ar    1  UNL1        0.0325
     29 C          64.2604   83.0329   13.0497 C.ar    1  UNL1       -0.0188
     30 C          64.9314   82.9025   14.3850 C.3     1  UNL1        0.0311
     31 C          63.7404   84.3657   12.5987 C.ar    1  UNL1       -0.0040
     32 C          63.8915   85.5680   13.4829 C.ar    1  UNL1       -0.0040
     33 C          63.3715   86.9007   13.0319 C.ar    1  UNL1        0.0057
     34 C          62.7005   87.0312   11.6967 C.ar    1  UNL1        0.0005
     35 C          62.1806   88.3640   11.2457 C.ar    1  UNL1        0.0090
     36 C          62.5495   85.8290   10.8125 C.ar    1  UNL1        0.0005
     37 C          63.0695   84.4962   11.2635 C.ar    1  UNL1        0.0057
     38 C          61.8785   85.9595    9.4773 C.ar    1  UNL1        0.0090
     39 H          64.7637   89.0932   16.9695 H       1  UNL1        0.2922
     40 H          62.3819   92.0197   13.3971 H       1  UNL1        0.2922
     41 H          59.9939   90.7903    7.8425 H       1  UNL1        0.2922
     42 H          60.2620   89.5065    7.7924 H       1  UNL1        0.2922
     43 H          60.4863   83.7671    5.5397 H       1  UNL1        0.2922
     44 H          62.8682   80.8405    9.1121 H       1  UNL1        0.2922
@<TRIPOS>BOND
     1     1     2    1
     2     2     3   ar
     3     3     4   ar
     4     4     5    1
     5     4     6   ar
     6     6     7    1
     7     7     8    2
     8     7     9    1
     9     9    10   ar
    10    10    11    1
    11    10    12   ar
    12    12    13   ar
    13    13    14    1
    14    13    15   ar
    15    15    16   ar
    16    16    17   ar
    17    17    18    1
    18    17    19   ar
    19    19    20   ar
    20    20    21    1
    21    20    22   ar
    22    22    23    1
    23    23    24    2
    24    23    25    1
    25    25    26   ar
    26    26    27    1
    27    26    28   ar
    28    28    29   ar
    29    29    30    1
    30    29    31   ar
    31    31    32   ar
    32    32    33   ar
    33    33    34   ar
    34    34    35   ar
    35    34    36   ar
    36    36    37   ar
    37    36    38   ar
    38    32     2   ar
    39    33     6   ar
    40    35     9   ar
    41    35    15   ar
    42    38    16   ar
    43    38    22   ar
    44    37    25   ar
    45    37    31   ar
    46     5    39    1
    47    11    40    1
    48    14    41    1
    49    18    42    1
    50    21    43    1
    51    27    44    1
@<TRIPOS>MOLECULE
*****
 44 51 0 0 0
SMALL
GASTEIGER

@<TRIPOS>ATOM
      1 C          63.5999   81.1709   11.6379 C.3     1  UNL1        0.0311
      2 C          63.6844   82.3104   12.6097 C.ar    1  UNL1       -0.0188
      3 C          64.1393   82.0634   14.0175 C.ar    1  UNL1        0.0325
      4 C          64.2238   83.2029   14.9892 C.ar    1  UNL1        0.1364
      5 O          64.6786   82.9559   16.3972 O.3     1  UNL1       -0.5054
      6 C          63.8534   84.5895   14.5532 C.ar    1  UNL1        0.0727
      7 C          63.9379   85.7291   15.5249 C.2     1  UNL1        0.2014
      8 O          64.3928   85.4820   16.9327 O.2     1  UNL1       -0.2864
      9 C          63.5676   87.1156   15.0888 C.ar    1  UNL1        0.0729
     10 C          63.6521   88.2552   16.0606 C.ar    1  UNL1        0.1397
     11 O          64.1069   88.0082   17.4684 O.3     1  UNL1       -0.5053
     12 C          63.2817   89.6418   15.6244 C.ar    1  UNL1        0.0733
     13 C          62.8269   89.8888   14.2166 C.ar    1  UNL1        0.1367
     14 O          62.4565   91.2755   13.7804 O.3     1  UNL1       -0.5054
     15 C          62.7424   88.7493   13.2448 C.ar    1  UNL1        0.0369
     16 C          62.2875   88.9964   11.8369 C.ar    1  UNL1        0.0369
     17 C          61.9172   90.3829   11.4008 C.ar    1  UNL1        0.1367
     18 O          62.0017   91.5225   12.3726 O.3     1  UNL1       -0.5054
     19 C          61.4624   90.6300    9.9930 C.ar    1  UNL1        0.0733
     20 C          61.3779   89.4904    9.0212 C.ar    1  UNL1        0.1397
     21 O          60.9230   89.7375    7.6133 O.3     1  UNL1       -0.5053
     22 C          61.7482   88.1038    9.4573 C.ar    1  UNL1        0.0729
     23 C          61.6637   86.9643    8.4856 C.2     1  UNL1        0.2014
     24 O          61.2089   87.2113    7.0777 O.2     1  UNL1       -0.2864
     25 C          62.0340   85.5777    8.9217 C.ar    1  UNL1        0.0727
     26 C          61.9495   84.4382    7.9499 C.ar    1  UNL1        0.1364
     27 O          61.4947   84.6852    6.5421 O.3     1  UNL1       -0.5054
     28 C          62.3199   83.0515    8.3861 C.ar    1  UNL1        0.0325
     29 C          62.7747   82.8045    9.7939 C.ar    1  UNL1       -0.0188
     30 C          63.1451   81.4179   10.2301 C.3     1  UNL1        0.0311
     31 C          62.8592   83.9441   10.7657 C.ar    1  UNL1       -0.0040
     32 C          63.3141   83.6970   12.1736 C.ar    1  UNL1       -0.0040
     33 C          63.3986   84.8365   13.1453 C.ar    1  UNL1        0.0057
     34 C          63.0282   86.2232   12.7092 C.ar    1  UNL1        0.0005
     35 C          63.1127   87.3627   13.6809 C.ar    1  UNL1        0.0090
     36 C          62.5734   86.4702   11.3013 C.ar    1  UNL1        0.0005
     37 C          62.4889   85.3306   10.3296 C.ar    1  UNL1        0.0057
     38 C          62.2030   87.8568   10.8652 C.ar    1  UNL1        0.0090
     39 H          64.9100   82.0897   16.6696 H       1  UNL1        0.2922
     40 H          64.3383   87.1420   17.7408 H       1  UNL1        0.2922
     41 H          62.5093   91.9873   14.3874 H       1  UNL1        0.2922
     42 H          62.2858   91.3682   13.2520 H       1  UNL1        0.2922
     43 H          60.6917   90.6037    7.3409 H       1  UNL1        0.2922
     44 H          61.2634   85.5513    6.2696 H       1  UNL1        0.2922
@<TRIPOS>BOND
     1     1     2    1
     2     2     3   ar
     3     3     4   ar
     4     4     5    1
     5     4     6   ar
     6     6     7    1
     7     7     8    2
     8     7     9    1
     9     9    10   ar
    10    10    11    1
    11    10    12   ar
    12    12    13   ar
    13    13    14    1
    14    13    15   ar
    15    15    16   ar
    16    16    17   ar
    17    17    18    1
    18    17    19   ar
    19    19    20   ar
    20    20    21    1
    21    20    22   ar
    22    22    23    1
    23    23    24    2
    24    23    25    1
    25    25    26   ar
    26    26    27    1
    27    26    28   ar
    28    28    29   ar
    29    29    30    1
    30    29    31   ar
    31    31    32   ar
    32    32    33   ar
    33    33    34   ar
    34    34    35   ar
    35    34    36   ar
    36    36    37   ar
    37    36    38   ar
    38    32     2   ar
    39    33     6   ar
    40    35     9   ar
    41    35    15   ar
    42    38    16   ar
    43    38    22   ar
    44    37    25   ar
    45    37    31   ar
    46     5    39    1
    47    11    40    1
    48    14    41    1
    49    18    42    1
    50    21    43    1
    51    27    44    1
@<TRIPOS>MOLECULE
*****
 44 51 0 0 0
SMALL
GASTEIGER

@<TRIPOS>ATOM
      1 C          63.1498   81.4164   10.2238 C.3     1  UNL1        0.0311
      2 C          62.7768   82.8028    9.7892 C.ar    1  UNL1       -0.0188
      3 C          62.3198   83.0502    8.3821 C.ar    1  UNL1        0.0325
      4 C          61.9468   84.4366    7.9475 C.ar    1  UNL1        0.1364
      5 O          61.4898   84.6840    6.5404 O.3     1  UNL1       -0.5054
      6 C          62.0308   85.5755    8.9200 C.ar    1  UNL1        0.0727
      7 C          61.6577   86.9619    8.4854 C.2     1  UNL1        0.2014
      8 O          61.2008   87.2093    7.0784 O.2     1  UNL1       -0.2864
      9 C          61.7417   88.1008    9.4579 C.ar    1  UNL1        0.0729
     10 C          61.3687   89.4872    9.0233 C.ar    1  UNL1        0.1397
     11 O          60.9117   89.7346    7.6163 O.3     1  UNL1       -0.5053
     12 C          61.4526   90.6261    9.9959 C.ar    1  UNL1        0.0733
     13 C          61.9096   90.3787   11.4030 C.ar    1  UNL1        0.1367
     14 O          61.9936   91.5176   12.3756 O.3     1  UNL1       -0.5054
     15 C          62.2826   88.9923   11.8376 C.ar    1  UNL1        0.0369
     16 C          62.7396   88.7449   13.2447 C.ar    1  UNL1        0.0369
     17 C          62.8235   89.8838   14.2172 C.ar    1  UNL1        0.1367
     18 O          62.4505   91.2702   13.7826 O.3     1  UNL1       -0.5054
     19 C          63.2805   89.6364   15.6243 C.ar    1  UNL1        0.0733
     20 C          63.6535   88.2500   16.0589 C.ar    1  UNL1        0.1397
     21 O          64.1105   88.0026   17.4660 O.3     1  UNL1       -0.5053
     22 C          63.5696   87.1111   15.0864 C.ar    1  UNL1        0.0729
     23 C          63.9426   85.7247   15.5210 C.2     1  UNL1        0.2014
     24 O          64.3996   85.4773   16.9281 O.2     1  UNL1       -0.2864
     25 C          63.8587   84.5858   14.5485 C.ar    1  UNL1        0.0727
     26 C          64.2317   83.1995   14.9831 C.ar    1  UNL1        0.1364
     27 O          64.6886   82.9520   16.3902 O.3     1  UNL1       -0.5054
     28 C          64.1477   82.0605   14.0105 C.ar    1  UNL1        0.0325
     29 C          63.6907   82.3080   12.6035 C.ar    1  UNL1       -0.0188
     30 C          63.6068   81.1690   11.6309 C.3     1  UNL1        0.0311
     31 C          63.3177   83.6943   12.1689 C.ar    1  UNL1       -0.0040
     32 C          62.8607   83.9417   10.7617 C.ar    1  UNL1       -0.0040
     33 C          62.4877   85.3281   10.3271 C.ar    1  UNL1        0.0057
     34 C          62.5717   86.4670   11.2997 C.ar    1  UNL1        0.0005
     35 C          62.1987   87.8534   10.8651 C.ar    1  UNL1        0.0090
     36 C          63.0286   86.2196   12.7068 C.ar    1  UNL1        0.0005
     37 C          63.4017   84.8332   13.1413 C.ar    1  UNL1        0.0057
     38 C          63.1126   87.3585   13.6793 C.ar    1  UNL1        0.0090
     39 H          61.4374   83.9725    5.9329 H       1  UNL1        0.2922
     40 H          60.8592   89.0231    7.0087 H       1  UNL1        0.2922
     41 H          61.7605   92.3836   12.1041 H       1  UNL1        0.2922
     42 H          62.1651   91.4247   12.9037 H       1  UNL1        0.2922
     43 H          64.1629   88.7141   18.0735 H       1  UNL1        0.2922
     44 H          64.7411   83.6635   16.9977 H       1  UNL1        0.2922
@<TRIPOS>BOND
     1     1     2    1
     2     2     3   ar
     3     3     4   ar
     4     4     5    1
     5     4     6   ar
     6     6     7    1
     7     7     8    2
     8     7     9    1
     9     9    10   ar
    10    10    11    1
    11    10    12   ar
    12    12    13   ar
    13    13    14    1
    14    13    15   ar
    15    15    16   ar
    16    16    17   ar
    17    17    18    1
    18    17    19   ar
    19    19    20   ar
    20    20    21    1
    21    20    22   ar
    22    22    23    1
    23    23    24    2
    24    23    25    1
    25    25    26   ar
    26    26    27    1
    27    26    28   ar
    28    28    29   ar
    29    29    30    1
    30    29    31   ar
    31    31    32   ar
    32    32    33   ar
    33    33    34   ar
    34    34    35   ar
    35    34    36   ar
    36    36    37   ar
    37    36    38   ar
    38    32     2   ar
    39    33     6   ar
    40    35     9   ar
    41    35    15   ar
    42    38    16   ar
    43    38    22   ar
    44    37    25   ar
    45    37    31   ar
    46     5    39    1
    47    11    40    1
    48    14    41    1
    49    18    42    1
    50    21    43    1
    51    27    44    1
@<TRIPOS>MOLECULE
*****
 44 51 0 0 0
SMALL
GASTEIGER

@<TRIPOS>ATOM
      1 C          61.8983   85.1858    7.3625 C.3     1  UNL1        0.0311
      2 C          62.2698   84.4591    8.6210 C.ar    1  UNL1       -0.0188
      3 C          62.4197   82.9667    8.6089 C.ar    1  UNL1        0.0325
      4 C          62.7913   82.2400    9.8674 C.ar    1  UNL1        0.1364
      5 O          62.9411   80.7475    9.8552 O.3     1  UNL1       -0.5054
      6 C          63.0130   83.0057   11.1380 C.ar    1  UNL1        0.0727
      7 C          63.3846   82.2790   12.3965 C.2     1  UNL1        0.2014
      8 O          63.5344   80.7866   12.3844 O.2     1  UNL1       -0.2864
      9 C          63.6063   83.0447   13.6671 C.ar    1  UNL1        0.0729
     10 C          63.9779   82.3180   14.9256 C.ar    1  UNL1        0.1397
     11 O          64.1277   80.8256   14.9135 O.3     1  UNL1       -0.5053
     12 C          64.1996   83.0838   16.1962 C.ar    1  UNL1        0.0733
     13 C          64.0498   84.5762   16.2083 C.ar    1  UNL1        0.1367
     14 O          64.2715   85.3420   17.4790 O.3     1  UNL1       -0.5054
     15 C          63.6782   85.3029   14.9498 C.ar    1  UNL1        0.0369
     16 C          63.5283   86.7954   14.9620 C.ar    1  UNL1        0.0369
     17 C          63.7501   87.5611   16.2326 C.ar    1  UNL1        0.1367
     18 O          64.1216   86.8344   17.4911 O.3     1  UNL1       -0.5054
     19 C          63.6002   89.0535   16.2447 C.ar    1  UNL1        0.0733
     20 C          63.2286   89.7802   14.9862 C.ar    1  UNL1        0.1397
     21 O          63.0788   91.2727   14.9983 O.3     1  UNL1       -0.5053
     22 C          63.0069   89.0145   13.7156 C.ar    1  UNL1        0.0729
     23 C          62.6353   89.7412   12.4571 C.2     1  UNL1        0.2014
     24 O          62.4855   91.2336   12.4692 O.2     1  UNL1       -0.2864
     25 C          62.4136   88.9755   11.1865 C.ar    1  UNL1        0.0727
     26 C          62.0420   89.7022    9.9280 C.ar    1  UNL1        0.1364
     27 O          61.8922   91.1946    9.9401 O.3     1  UNL1       -0.5054
     28 C          61.8203   88.9364    8.6573 C.ar    1  UNL1        0.0325
     29 C          61.9701   87.4440    8.6452 C.ar    1  UNL1       -0.0188
     30 C          61.7484   86.6782    7.3746 C.3     1  UNL1        0.0311
     31 C          62.3417   86.7173    9.9037 C.ar    1  UNL1       -0.0040
     32 C          62.4916   85.2248    9.8916 C.ar    1  UNL1       -0.0040
     33 C          62.8631   84.4981   11.1501 C.ar    1  UNL1        0.0057
     34 C          63.0849   85.2639   12.4207 C.ar    1  UNL1        0.0005
     35 C          63.4565   84.5372   13.6792 C.ar    1  UNL1        0.0090
     36 C          62.9350   86.7563   12.4328 C.ar    1  UNL1        0.0005
     37 C          62.5634   87.4830   11.1743 C.ar    1  UNL1        0.0057
     38 C          63.1568   87.5221   13.7035 C.ar    1  UNL1        0.0090
     39 H          62.8026   80.2691    9.0615 H       1  UNL1        0.2922
     40 H          63.9892   80.3472   14.1198 H       1  UNL1        0.2922
     41 H          64.5036   84.8880   18.2652 H       1  UNL1        0.2922
     42 H          64.2153   85.9021   17.4835 H       1  UNL1        0.2922
     43 H          63.2173   91.7510   15.7921 H       1  UNL1        0.2922
     44 H          62.0307   91.6730   10.7338 H       1  UNL1        0.2922
@<TRIPOS>BOND
     1     1     2    1
     2     2     3   ar
     3     3     4   ar
     4     4     5    1
     5     4     6   ar
     6     6     7    1
     7     7     8    2
     8     7     9    1
     9     9    10   ar
    10    10    11    1
    11    10    12   ar
    12    12    13   ar
    13    13    14    1
    14    13    15   ar
    15    15    16   ar
    16    16    17   ar
    17    17    18    1
    18    17    19   ar
    19    19    20   ar
    20    20    21    1
    21    20    22   ar
    22    22    23    1
    23    23    24    2
    24    23    25    1
    25    25    26   ar
    26    26    27    1
    27    26    28   ar
    28    28    29   ar
    29    29    30    1
    30    29    31   ar
    31    31    32   ar
    32    32    33   ar
    33    33    34   ar
    34    34    35   ar
    35    34    36   ar
    36    36    37   ar
    37    36    38   ar
    38    32     2   ar
    39    33     6   ar
    40    35     9   ar
    41    35    15   ar
    42    38    16   ar
    43    38    22   ar
    44    37    25   ar
    45    37    31   ar
    46     5    39    1
    47    11    40    1
    48    14    41    1
    49    18    42    1
    50    21    43    1
    51    27    44    1
@<TRIPOS>MOLECULE
*****
 44 51 0 0 0
SMALL
GASTEIGER

@<TRIPOS>ATOM
      1 C          61.7424   86.6922    7.3764 C.3     1  UNL1        0.0311
      2 C          61.9628   87.4587    8.6467 C.ar    1  UNL1       -0.0188
      3 C          61.8099   88.9508    8.6585 C.ar    1  UNL1        0.0325
      4 C          62.0303   89.7174    9.9288 C.ar    1  UNL1        0.1364
      5 O          61.8774   91.2096    9.9405 O.3     1  UNL1       -0.5054
      6 C          62.4036   88.9918   11.1875 C.ar    1  UNL1        0.0727
      7 C          62.6240   89.7584   12.4578 C.2     1  UNL1        0.2014
      8 O          62.4711   91.2505   12.4695 O.2     1  UNL1       -0.2864
      9 C          62.9972   89.0329   13.7164 C.ar    1  UNL1        0.0729
     10 C          63.2176   89.7994   14.9868 C.ar    1  UNL1        0.1397
     11 O          63.0647   91.2915   14.9985 O.3     1  UNL1       -0.5053
     12 C          63.5909   89.0738   16.2455 C.ar    1  UNL1        0.0733
     13 C          63.7438   87.5817   16.2337 C.ar    1  UNL1        0.1367
     14 O          64.1171   86.8560   17.4924 O.3     1  UNL1       -0.5054
     15 C          63.5234   86.8151   14.9634 C.ar    1  UNL1        0.0369
     16 C          63.6764   85.3229   14.9517 C.ar    1  UNL1        0.0369
     17 C          64.0496   84.5974   16.2103 C.ar    1  UNL1        0.1367
     18 O          64.2700   85.3639   17.4807 O.3     1  UNL1       -0.5054
     19 C          64.2025   83.1053   16.1986 C.ar    1  UNL1        0.0733
     20 C          63.9821   82.3387   14.9282 C.ar    1  UNL1        0.1397
     21 O          64.1351   80.8465   14.9165 O.3     1  UNL1       -0.5053
     22 C          63.6089   83.0643   13.6696 C.ar    1  UNL1        0.0729
     23 C          63.3885   82.2977   12.3992 C.2     1  UNL1        0.2014
     24 O          63.5414   80.8056   12.3875 O.2     1  UNL1       -0.2864
     25 C          63.0152   83.0232   11.1406 C.ar    1  UNL1        0.0727
     26 C          62.7948   82.2567    9.8703 C.ar    1  UNL1        0.1364
     27 O          62.9477   80.7646    9.8585 O.3     1  UNL1       -0.5054
     28 C          62.4215   82.9823    8.6116 C.ar    1  UNL1        0.0325
     29 C          62.2686   84.4744    8.6233 C.ar    1  UNL1       -0.0188
     30 C          61.8953   85.2001    7.3646 C.3     1  UNL1        0.0311
     31 C          62.4890   85.2410    9.8937 C.ar    1  UNL1       -0.0040
     32 C          62.3361   86.7332    9.9054 C.ar    1  UNL1       -0.0040
     33 C          62.5564   87.4997   11.1757 C.ar    1  UNL1        0.0057
     34 C          62.9298   86.7741   12.4344 C.ar    1  UNL1        0.0005
     35 C          63.1502   87.5407   13.7047 C.ar    1  UNL1        0.0090
     36 C          63.0827   85.2820   12.4227 C.ar    1  UNL1        0.0005
     37 C          62.8623   84.5154   11.1523 C.ar    1  UNL1        0.0057
     38 C          63.4560   84.5564   13.6813 C.ar    1  UNL1        0.0090
     39 H          61.6442   91.6628    9.1543 H       1  UNL1        0.2922
     40 H          62.8316   91.7448   14.2123 H       1  UNL1        0.2922
     41 H          64.2548   87.3349   18.2860 H       1  UNL1        0.2922
     42 H          64.1745   86.2960   17.4880 H       1  UNL1        0.2922
     43 H          64.3682   80.3933   15.7028 H       1  UNL1        0.2922
     44 H          63.1809   80.3113   10.6447 H       1  UNL1        0.2922
@<TRIPOS>BOND
     1     1     2    1
     2     2     3   ar
     3     3     4   ar
     4     4     5    1
     5     4     6   ar
     6     6     7    1
     7     7     8    2
     8     7     9    1
     9     9    10   ar
    10    10    11    1
    11    10    12   ar
    12    12    13   ar
    13    13    14    1
    14    13    15   ar
    15    15    16   ar
    16    16    17   ar
    17    17    18    1
    18    17    19   ar
    19    19    20   ar
    20    20    21    1
    21    20    22   ar
    22    22    23    1
    23    23    24    2
    24    23    25    1
    25    25    26   ar
    26    26    27    1
    27    26    28   ar
    28    28    29   ar
    29    29    30    1
    30    29    31   ar
    31    31    32   ar
    32    32    33   ar
    33    33    34   ar
    34    34    35   ar
    35    34    36   ar
    36    36    37   ar
    37    36    38   ar
    38    32     2   ar
    39    33     6   ar
    40    35     9   ar
    41    35    15   ar
    42    38    16   ar
    43    38    22   ar
    44    37    25   ar
    45    37    31   ar
    46     5    39    1
    47    11    40    1
    48    14    41    1
    49    18    42    1
    50    21    43    1
    51    27    44    1
@<TRIPOS>MOLECULE
*****
 44 51 0 0 0
SMALL
GASTEIGER

@<TRIPOS>ATOM
      1 C          62.6019   89.9257    9.1923 C.3     1  UNL1        0.0311
      2 C          62.6258   88.4408    9.4030 C.ar    1  UNL1       -0.0188
      3 C          62.5165   87.5147    8.2281 C.ar    1  UNL1        0.0325
      4 C          62.5404   86.0298    8.4388 C.ar    1  UNL1        0.1364
      5 O          62.4311   85.1037    7.2638 O.3     1  UNL1       -0.5054
      6 C          62.6737   85.4709    9.8244 C.ar    1  UNL1        0.0727
      7 C          62.6976   83.9860   10.0350 C.2     1  UNL1        0.2014
      8 O          62.5883   83.0599    8.8602 O.2     1  UNL1       -0.2864
      9 C          62.8309   83.4271   11.4206 C.ar    1  UNL1        0.0729
     10 C          62.8548   81.9422   11.6313 C.ar    1  UNL1        0.1397
     11 O          62.7455   81.0161   10.4564 O.3     1  UNL1       -0.5053
     12 C          62.9881   81.3833   13.0170 C.ar    1  UNL1        0.0733
     13 C          63.0974   82.3094   14.1919 C.ar    1  UNL1        0.1367
     14 O          63.2307   81.7505   15.5775 O.3     1  UNL1       -0.5054
     15 C          63.0735   83.7943   13.9812 C.ar    1  UNL1        0.0369
     16 C          63.1828   84.7204   15.1562 C.ar    1  UNL1        0.0369
     17 C          63.3160   84.1615   16.5417 C.ar    1  UNL1        0.1367
     18 O          63.3400   82.6766   16.7524 O.3     1  UNL1       -0.5054
     19 C          63.4253   85.0876   17.7166 C.ar    1  UNL1        0.0733
     20 C          63.4014   86.5725   17.5059 C.ar    1  UNL1        0.1397
     21 O          63.5107   87.4986   18.6809 O.3     1  UNL1       -0.5053
     22 C          63.2682   87.1314   16.1203 C.ar    1  UNL1        0.0729
     23 C          63.2442   88.6163   15.9097 C.2     1  UNL1        0.2014
     24 O          63.3535   89.5424   17.0845 O.2     1  UNL1       -0.2864
     25 C          63.1110   89.1752   14.5241 C.ar    1  UNL1        0.0727
     26 C          63.0870   90.6601   14.3134 C.ar    1  UNL1        0.1364
     27 O          63.1963   91.5862   15.4883 O.3     1  UNL1       -0.5054
     28 C          62.9538   91.2190   12.9277 C.ar    1  UNL1        0.0325
     29 C          62.8444   90.2929   11.7528 C.ar    1  UNL1       -0.0188
     30 C          62.7112   90.8518   10.3672 C.3     1  UNL1        0.0311
     31 C          62.8684   88.8080   11.9635 C.ar    1  UNL1       -0.0040
     32 C          62.7591   87.8819   10.7885 C.ar    1  UNL1       -0.0040
     33 C          62.7830   86.3970   10.9992 C.ar    1  UNL1        0.0057
     34 C          62.9163   85.8381   12.3849 C.ar    1  UNL1        0.0005
     35 C          62.9402   84.3532   12.5956 C.ar    1  UNL1        0.0090
     36 C          63.0256   86.7642   13.5598 C.ar    1  UNL1        0.0005
     37 C          63.0016   88.2491   13.3491 C.ar    1  UNL1        0.0057
     38 C          63.1588   86.2053   14.9455 C.ar    1  UNL1        0.0090
     39 H          62.3479   85.4528    6.3983 H       1  UNL1        0.2922
     40 H          62.6623   81.3652    9.5909 H       1  UNL1        0.2922
     41 H          63.2456   80.8229   15.7092 H       1  UNL1        0.2922
     42 H          63.2717   82.0981   16.0185 H       1  UNL1        0.2922
     43 H          63.5940   87.1495   19.5464 H       1  UNL1        0.2922
     44 H          63.2796   91.2371   16.3538 H       1  UNL1        0.2922
@<TRIPOS>BOND
     1     1     2    1
     2     2     3   ar
     3     3     4   ar
     4     4     5    1
     5     4     6   ar
     6     6     7    1
     7     7     8    2
     8     7     9    1
     9     9    10   ar
    10    10    11    1
    11    10    12   ar
    12    12    13   ar
    13    13    14    1
    14    13    15   ar
    15    15    16   ar
    16    16    17   ar
    17    17    18    1
    18    17    19   ar
    19    19    20   ar
    20    20    21    1
    21    20    22   ar
    22    22    23    1
    23    23    24    2
    24    23    25    1
    25    25    26   ar
    26    26    27    1
    27    26    28   ar
    28    28    29   ar
    29    29    30    1
    30    29    31   ar
    31    31    32   ar
    32    32    33   ar
    33    33    34   ar
    34    34    35   ar
    35    34    36   ar
    36    36    37   ar
    37    36    38   ar
    38    32     2   ar
    39    33     6   ar
    40    35     9   ar
    41    35    15   ar
    42    38    16   ar
    43    38    22   ar
    44    37    25   ar
    45    37    31   ar
    46     5    39    1
    47    11    40    1
    48    14    41    1
    49    18    42    1
    50    21    43    1
    51    27    44    1
