@<TRIPOS>MOLECULE
*****
 43 46 0 0 0
SMALL
GASTEIGER

@<TRIPOS>ATOM
      1 C          63.5831   89.7883   12.7182 C.3     1  UNL1        0.1085
      2 O          63.4325   89.2586   11.3230 O.3     1  UNL1       -0.3826
      3 H          63.2692   89.9952   10.7133 H       1  UNL1        0.2107
      4 C          63.7976   88.3929   13.2248 C.3     1  UNL1        0.0484
      5 C          64.5941   88.1631   14.4749 C.3     1  UNL1        0.0061
      6 C          64.8086   86.7675   14.9816 C.3     1  UNL1        0.0217
      7 C          64.2266   85.6020   14.2382 C.3     1  UNL1        0.0934
      8 N          63.4302   85.8319   12.9881 N.am    1  UNL1       -0.2795
      9 C          62.8482   84.6662   12.2446 C.2     1  UNL1        0.2252
     10 O          62.0517   84.8961   10.9945 O.2     1  UNL1       -0.2749
     11 C          63.2157   87.2273   12.4814 C.3     1  UNL1        0.0960
     12 C          63.0627   83.2708   12.7513 C.3     1  UNL1        0.0781
     13 C          64.2794   82.4252   12.5175 C.3     1  UNL1        0.0105
     14 C          64.0668   81.1077   13.2025 C.3     1  UNL1        0.0160
     15 C          62.7188   81.1391   13.8596 C.3     1  UNL1        0.0513
     16 N          62.1000   80.0286   14.6557 N.3     1  UNL1       -0.3222
     17 C          62.0982   82.4759   13.5807 C.3     1  UNL1        0.0245
     18 H          62.7397   79.2348   14.6863 H       1  UNL1        0.1188
     19 H          61.2244   79.7430   14.2173 H       1  UNL1        0.1188
     20 C          64.8470   91.2695   14.4383 C.ar    1  UNL1        0.0088
     21 C          64.9977   91.7993   15.8335 C.ar    1  UNL1        0.0574
     22 CL         66.1109   92.7507   16.1583 Cl      1  UNL1       -0.0823
     23 C          64.0352   91.3775   16.9039 C.ar    1  UNL1        0.0114
     24 C          62.9220   90.4261   16.5791 C.ar    1  UNL1        0.0006
     25 C          62.7713   89.8963   15.1838 C.ar    1  UNL1       -0.0020
     26 C          63.7338   90.3181   14.1134 C.ar    1  UNL1        0.0026
     27 C          66.3386   93.0838   11.2393 C.ar    1  UNL1       -0.0222
     28 C          67.7344   92.5347   11.2270 C.ar    1  UNL1       -0.0043
     29 C          68.1677   91.5639   12.2852 C.ar    1  UNL1       -0.0003
     30 C          67.2053   91.1421   13.3556 C.ar    1  UNL1       -0.0000
     31 C          65.8095   91.6912   13.3678 C.ar    1  UNL1        0.0003
     32 C          65.3762   92.6621   12.3097 C.ar    1  UNL1       -0.0042
     33 C          66.9133   94.6241    9.2275 C.3     1  UNL1        0.0050
     34 C          65.9052   94.0546   10.1811 C.3     1  UNL1        0.0264
     35 C          63.3686   91.1837   12.2115 C.3     1  UNL1        0.0329
     36 C          62.5806   91.4129   10.9559 C.3     1  UNL1        0.0241
     37 C          61.1745   90.9015   10.8490 C.3     1  UNL1        0.0928
     38 N          60.8201   89.8967    9.7932 N.am    1  UNL1       -0.2707
     39 C          60.2220   88.5778   10.1837 C.2     1  UNL1        0.4017
     40 O          59.9783   88.2636   11.6301 O.2     1  UNL1       -0.2264
     41 H          60.9801   90.1029    8.8440 H       1  UNL1        0.1527
     42 O          59.8676   87.5729    9.1279 O.3     1  UNL1       -0.4306
     43 C          59.3859   88.0348    7.7845 C.3     1  UNL1        0.2573
@<TRIPOS>BOND
     1    33    34    1
     2    34    27    1
     3    27    28   ar
     4    28    29   ar
     5    29    30   ar
     6    30    31   ar
     7    31    20    1
     8    20    21   ar
     9    21    22    1
    10    21    23   ar
    11    23    24   ar
    12    24    25   ar
    13    25    26   ar
    14    26     1    1
    15     1     2    1
    16     1    35    1
    17    35    36    1
    18    36    37    1
    19    37    38    1
    20    38    39   am
    21    39    40    2
    22    39    42    1
    23    42    43    1
    24     4     1    1
    25     4     5    1
    26     5     6    1
    27     6     7    1
    28     7     8    1
    29     8     9   am
    30     9    10    2
    31    12     9    1
    32    12    13    1
    33    13    14    1
    34    14    15    1
    35    15    16    1
    36    15    17    1
    37     8    11    1
    38    31    32   ar
    39    32    27   ar
    40    26    20   ar
    41    11     4    1
    42    17    12    1
    43     2     3    1
    44    38    41    1
    45    16    18    1
    46    16    19    1
@<TRIPOS>MOLECULE
*****
 43 46 0 0 0
SMALL
GASTEIGER

@<TRIPOS>ATOM
      1 C          63.0605   88.5796   12.4466 C.3     1  UNL1        0.1085
      2 O          64.4761   88.4150   12.9143 O.3     1  UNL1       -0.3826
      3 H          64.5468   87.6128   13.4551 H       1  UNL1        0.2107
      4 C          63.4451   89.8371   11.7250 C.3     1  UNL1        0.0484
      5 C          62.7884   90.1848   10.4220 C.3     1  UNL1        0.0061
      6 C          63.1731   91.4424    9.7004 C.3     1  UNL1        0.0217
      7 C          64.2144   92.3521   10.2818 C.3     1  UNL1        0.0934
      8 N          64.8710   92.0044   11.5848 N.am    1  UNL1       -0.2795
      9 C          65.9123   92.9142   12.1663 C.2     1  UNL1        0.2252
     10 O          66.5690   92.5664   13.4693 O.2     1  UNL1       -0.2749
     11 C          64.4864   90.7469   12.3064 C.3     1  UNL1        0.0960
     12 C          66.2970   94.1716   11.4446 C.3     1  UNL1        0.0781
     13 C          66.0525   95.5723   11.9225 C.3     1  UNL1        0.0105
     14 C          66.5981   96.5156   10.8916 C.3     1  UNL1        0.0160
     15 C          67.1797   95.6979    9.7767 C.3     1  UNL1        0.0513
     16 N          67.8327   96.2346    8.5376 N.3     1  UNL1       -0.3222
     17 C          66.9936   94.2493   10.1185 C.3     1  UNL1        0.0245
     18 H          67.8240   97.2543    8.5631 H       1  UNL1        0.1188
     19 H          67.3218   95.9107    7.7164 H       1  UNL1        0.1188
     20 C          61.0819   87.8107   10.9485 C.ar    1  UNL1        0.0088
     21 C          59.6663   87.9754   10.4807 C.ar    1  UNL1        0.0574
     22 CL         59.1035   87.0418    9.4503 Cl      1  UNL1       -0.0823
     23 C          58.8134   89.0736   11.0434 C.ar    1  UNL1        0.0114
     24 C          59.3762   90.0071   12.0739 C.ar    1  UNL1        0.0006
     25 C          60.7919   89.8424   12.5416 C.ar    1  UNL1       -0.0020
     26 C          61.6447   88.7443   11.9789 C.ar    1  UNL1        0.0026
     27 C          62.9726   84.3397   10.5919 C.ar    1  UNL1       -0.0222
     28 C          63.6406   84.5162    9.2606 C.ar    1  UNL1       -0.0043
     29 C          63.4557   85.7909    8.4918 C.ar    1  UNL1       -0.0003
     30 C          62.6028   86.8890    9.0544 C.ar    1  UNL1       -0.0000
     31 C          61.9349   86.7125   10.3858 C.ar    1  UNL1        0.0003
     32 C          62.1197   85.4378   11.1545 C.ar    1  UNL1       -0.0042
     33 C          64.5368   82.6043   11.7285 C.3     1  UNL1        0.0050
     34 C          63.1575   83.0650   11.3607 C.3     1  UNL1        0.0264
     35 C          62.6758   87.3221   13.1682 C.3     1  UNL1        0.0329
     36 C          63.7309   86.4801   13.8223 C.3     1  UNL1        0.0241
     37 C          63.3527   85.5060   14.8984 C.3     1  UNL1        0.0928
     38 N          62.2937   84.4757   14.6390 N.am    1  UNL1       -0.2707
     39 C          62.5993   83.0204   14.8349 C.2     1  UNL1        0.4017
     40 O          63.9639   82.5951   15.2901 O.2     1  UNL1       -0.2264
     41 H          61.3981   84.7548   14.3402 H       1  UNL1        0.1527
     42 O          61.5404   81.9901   14.5755 O.3     1  UNL1       -0.4306
     43 C          61.8799   80.7394   13.8200 C.3     1  UNL1        0.2573
@<TRIPOS>BOND
     1    33    34    1
     2    34    27    1
     3    27    28   ar
     4    28    29   ar
     5    29    30   ar
     6    30    31   ar
     7    31    20    1
     8    20    21   ar
     9    21    22    1
    10    21    23   ar
    11    23    24   ar
    12    24    25   ar
    13    25    26   ar
    14    26     1    1
    15     1     2    1
    16     1    35    1
    17    35    36    1
    18    36    37    1
    19    37    38    1
    20    38    39   am
    21    39    40    2
    22    39    42    1
    23    42    43    1
    24     4     1    1
    25     4     5    1
    26     5     6    1
    27     6     7    1
    28     7     8    1
    29     8     9   am
    30     9    10    2
    31    12     9    1
    32    12    13    1
    33    13    14    1
    34    14    15    1
    35    15    16    1
    36    15    17    1
    37     8    11    1
    38    31    32   ar
    39    32    27   ar
    40    26    20   ar
    41    11     4    1
    42    17    12    1
    43     2     3    1
    44    38    41    1
    45    16    18    1
    46    16    19    1
@<TRIPOS>MOLECULE
*****
 43 46 0 0 0
SMALL
GASTEIGER

@<TRIPOS>ATOM
      1 C          63.0835   88.7177   12.4135 C.3     1  UNL1        0.1085
      2 O          64.4946   88.5624   12.8977 O.3     1  UNL1       -0.3826
      3 H          64.5608   87.7691   13.4520 H       1  UNL1        0.2107
      4 C          63.4738   89.9639   11.6756 C.3     1  UNL1        0.0484
      5 C          62.8357   90.2855   10.3568 C.3     1  UNL1        0.0061
      6 C          63.2260   91.5318    9.6188 C.3     1  UNL1        0.0217
      7 C          64.2544   92.4564   10.1998 C.3     1  UNL1        0.0934
      8 N          64.8926   92.1347   11.5186 N.am    1  UNL1       -0.2795
      9 C          65.9210   93.0593   12.0995 C.2     1  UNL1        0.2252
     10 O          66.5592   92.7377   13.4184 O.2     1  UNL1       -0.2749
     11 C          64.5023   90.8885   12.2565 C.3     1  UNL1        0.0960
     12 C          66.3113   94.3055   11.3616 C.3     1  UNL1        0.0781
     13 C          66.0202   95.7127   11.7919 C.3     1  UNL1        0.0105
     14 C          66.5903   96.6403   10.7600 C.3     1  UNL1        0.0160
     15 C          67.2337   95.8064    9.6920 C.3     1  UNL1        0.0513
     16 N          67.9276   96.3245    8.4673 N.3     1  UNL1       -0.3222
     17 C          67.0613   94.3634   10.0638 C.3     1  UNL1        0.0245
     18 H          67.8983   97.3440    8.4656 H       1  UNL1        0.1188
     19 H          67.4578   95.9694    7.6345 H       1  UNL1        0.1188
     20 C          61.0997   87.8840   10.9576 C.ar    1  UNL1        0.0088
     21 C          59.6885   88.0393   10.4733 C.ar    1  UNL1        0.0574
     22 CL         59.1160   87.0503    9.5016 Cl      1  UNL1       -0.0823
     23 C          58.8499   89.1835   10.9607 C.ar    1  UNL1        0.0114
     24 C          59.4225   90.1724   11.9324 C.ar    1  UNL1        0.0006
     25 C          60.8337   90.0171   12.4167 C.ar    1  UNL1       -0.0020
     26 C          61.6723   88.8730   11.9292 C.ar    1  UNL1        0.0026
     27 C          62.9379   84.3690   10.8312 C.ar    1  UNL1       -0.0222
     28 C          63.6155   84.4514    9.4955 C.ar    1  UNL1       -0.0043
     29 C          63.4545   85.6779    8.6472 C.ar    1  UNL1       -0.0003
     30 C          62.6159   86.8221    9.1345 C.ar    1  UNL1       -0.0000
     31 C          61.9383   86.7398   10.4702 C.ar    1  UNL1        0.0003
     32 C          62.0993   85.5132   11.3185 C.ar    1  UNL1       -0.0042
     33 C          63.4320   81.8270   11.0404 C.3     1  UNL1        0.0050
     34 C          63.0989   83.1425   11.6795 C.3     1  UNL1        0.0264
     35 C          62.6932   87.4714   13.1514 C.3     1  UNL1        0.0329
     36 C          63.6703   86.8118   14.0788 C.3     1  UNL1        0.0241
     37 C          63.7948   87.2844   15.4969 C.3     1  UNL1        0.0928
     38 N          64.1209   88.7203   15.7830 N.am    1  UNL1       -0.2707
     39 C          63.0371   89.6646   16.2115 C.2     1  UNL1        0.4017
     40 O          61.6270   89.1729   16.3539 O.2     1  UNL1       -0.2264
     41 H          65.0463   89.0430   15.6895 H       1  UNL1        0.1527
     42 O          63.3631   91.1005   16.4976 O.3     1  UNL1       -0.4306
     43 C          64.6506   91.6902   16.0027 C.3     1  UNL1        0.2573
@<TRIPOS>BOND
     1    33    34    1
     2    34    27    1
     3    27    28   ar
     4    28    29   ar
     5    29    30   ar
     6    30    31   ar
     7    31    20    1
     8    20    21   ar
     9    21    22    1
    10    21    23   ar
    11    23    24   ar
    12    24    25   ar
    13    25    26   ar
    14    26     1    1
    15     1     2    1
    16     1    35    1
    17    35    36    1
    18    36    37    1
    19    37    38    1
    20    38    39   am
    21    39    40    2
    22    39    42    1
    23    42    43    1
    24     4     1    1
    25     4     5    1
    26     5     6    1
    27     6     7    1
    28     7     8    1
    29     8     9   am
    30     9    10    2
    31    12     9    1
    32    12    13    1
    33    13    14    1
    34    14    15    1
    35    15    16    1
    36    15    17    1
    37     8    11    1
    38    31    32   ar
    39    32    27   ar
    40    26    20   ar
    41    11     4    1
    42    17    12    1
    43     2     3    1
    44    38    41    1
    45    16    18    1
    46    16    19    1
@<TRIPOS>MOLECULE
*****
 43 46 0 0 0
SMALL
GASTEIGER

@<TRIPOS>ATOM
      1 C          62.6211   89.3287   10.5665 C.3     1  UNL1        0.1085
      2 O          63.6649   89.3326    9.4893 O.3     1  UNL1       -0.3826
      3 H          63.8606   90.2472    9.2320 H       1  UNL1        0.2107
      4 C          62.6692   87.8301   10.6077 C.3     1  UNL1        0.0484
      5 C          62.5270   87.0400    9.3406 C.3     1  UNL1        0.0061
      6 C          62.5752   85.5413    9.3818 C.3     1  UNL1        0.0217
      7 C          62.7654   84.8328   10.6901 C.3     1  UNL1        0.0934
      8 N          62.9076   85.6228   11.9572 N.am    1  UNL1       -0.2795
      9 C          63.0979   84.9142   13.2655 C.2     1  UNL1        0.2252
     10 O          63.2401   85.7042   14.5327 O.2     1  UNL1       -0.2749
     11 C          62.8595   87.1215   11.9160 C.3     1  UNL1        0.0960
     12 C          63.1460   83.4156   13.3067 C.3     1  UNL1        0.0781
     13 C          64.3335   82.5621   12.9729 C.3     1  UNL1        0.0105
     14 C          63.9364   81.1262   13.1488 C.3     1  UNL1        0.0160
     15 C          62.5036   81.0924   13.5914 C.3     1  UNL1        0.0513
     16 N          61.7004   79.8601   13.8848 N.3     1  UNL1       -0.3222
     17 C          62.0151   82.5073   13.6889 C.3     1  UNL1        0.0245
     18 H          62.2796   79.0336   13.7373 H       1  UNL1        0.1188
     19 H          60.8927   79.8246   13.2629 H       1  UNL1        0.1188
     20 C          60.1640   88.9422   11.3173 C.ar    1  UNL1        0.0088
     21 C          59.1202   88.9382   12.3944 C.ar    1  UNL1        0.0574
     22 CL         57.7070   88.5557   12.0680 Cl      1  UNL1       -0.0823
     23 C          59.4895   89.3168   13.7982 C.ar    1  UNL1        0.0114
     24 C          60.9027   89.6994   14.1246 C.ar    1  UNL1        0.0006
     25 C          61.9466   89.7033   13.0474 C.ar    1  UNL1       -0.0020
     26 C          61.5772   89.3248   11.6437 C.ar    1  UNL1        0.0026
     27 C          59.5285   89.1979    7.4082 C.ar    1  UNL1       -0.0222
     28 C          59.0562   87.8066    7.1062 C.ar    1  UNL1       -0.0043
     29 C          58.9532   86.7938    8.2079 C.ar    1  UNL1       -0.0003
     30 C          59.3225   87.1723    9.6116 C.ar    1  UNL1       -0.0000
     31 C          59.7947   88.5636    9.9136 C.ar    1  UNL1        0.0003
     32 C          59.8977   89.5764    8.8119 C.ar    1  UNL1       -0.0042
     33 C          58.3921   90.6923    5.6123 C.3     1  UNL1        0.0050
     34 C          59.6315   90.2106    6.3065 C.3     1  UNL1        0.0264
     35 C          62.5730   90.8274   10.5253 C.3     1  UNL1        0.0329
     36 C          63.7429   91.6010    9.9936 C.3     1  UNL1        0.0241
     37 C          64.6699   92.3040   10.9403 C.3     1  UNL1        0.0928
     38 N          65.3686   93.5603   10.5117 N.am    1  UNL1       -0.2707
     39 C          66.8657   93.6392   10.5588 C.2     1  UNL1        0.4017
     40 O          67.6643   92.4619   11.0345 O.2     1  UNL1       -0.2264
     41 H          64.8445   94.3330   10.1995 H       1  UNL1        0.1527
     42 O          67.5644   94.8955   10.1301 O.3     1  UNL1       -0.4306
     43 C          67.5319   95.3181    8.6912 C.3     1  UNL1        0.2573
@<TRIPOS>BOND
     1    33    34    1
     2    34    27    1
     3    27    28   ar
     4    28    29   ar
     5    29    30   ar
     6    30    31   ar
     7    31    20    1
     8    20    21   ar
     9    21    22    1
    10    21    23   ar
    11    23    24   ar
    12    24    25   ar
    13    25    26   ar
    14    26     1    1
    15     1     2    1
    16     1    35    1
    17    35    36    1
    18    36    37    1
    19    37    38    1
    20    38    39   am
    21    39    40    2
    22    39    42    1
    23    42    43    1
    24     4     1    1
    25     4     5    1
    26     5     6    1
    27     6     7    1
    28     7     8    1
    29     8     9   am
    30     9    10    2
    31    12     9    1
    32    12    13    1
    33    13    14    1
    34    14    15    1
    35    15    16    1
    36    15    17    1
    37     8    11    1
    38    31    32   ar
    39    32    27   ar
    40    26    20   ar
    41    11     4    1
    42    17    12    1
    43     2     3    1
    44    38    41    1
    45    16    18    1
    46    16    19    1
@<TRIPOS>MOLECULE
*****
 43 46 0 0 0
SMALL
GASTEIGER

@<TRIPOS>ATOM
      1 C          62.3141   89.4618   10.6396 C.3     1  UNL1        0.1085
      2 O          63.4967   89.5280    9.7193 O.3     1  UNL1       -0.3826
      3 H          63.7865   90.4495    9.6309 H       1  UNL1        0.2107
      4 C          62.2570   87.9738   10.4592 C.3     1  UNL1        0.0484
      5 C          61.8165   87.3936    9.1480 C.3     1  UNL1        0.0061
      6 C          61.7594   85.9055    8.9676 C.3     1  UNL1        0.0217
      7 C          62.1428   84.9977   10.0985 C.3     1  UNL1        0.0934
      8 N          62.5833   85.5779   11.4097 N.am    1  UNL1       -0.2795
      9 C          62.9667   84.6701   12.5406 C.2     1  UNL1        0.2252
     10 O          63.4071   85.2502   13.8518 O.2     1  UNL1       -0.2749
     11 C          62.6404   87.0659   11.5901 C.3     1  UNL1        0.0960
     12 C          62.9096   83.1821   12.3602 C.3     1  UNL1        0.0781
     13 C          63.4055   82.4188   11.1680 C.3     1  UNL1        0.0105
     14 C          63.1489   80.9610   11.4114 C.3     1  UNL1        0.0160
     15 C          62.4944   80.8234   12.7540 C.3     1  UNL1        0.0513
     16 N          62.0635   79.5387   13.3972 N.3     1  UNL1       -0.3222
     17 C          62.3465   82.1960   13.3404 C.3     1  UNL1        0.0245
     18 H          62.2838   78.7581   12.7786 H       1  UNL1        0.1188
     19 H          61.0581   79.5642   13.5675 H       1  UNL1        0.1188
     20 C          61.3325   89.4562   13.0451 C.ar    1  UNL1        0.0088
     21 C          60.1499   89.3900   13.9654 C.ar    1  UNL1        0.0574
     22 CL         60.3510   89.4507   15.4506 Cl      1  UNL1       -0.0823
     23 C          58.7661   89.2631   13.4005 C.ar    1  UNL1        0.0114
     24 C          58.5650   89.2024   11.9153 C.ar    1  UNL1        0.0006
     25 C          59.7477   89.2687   10.9950 C.ar    1  UNL1       -0.0020
     26 C          61.1314   89.3956   11.5599 C.ar    1  UNL1        0.0026
     27 C          64.7497   91.0586   14.2719 C.ar    1  UNL1       -0.0222
     28 C          65.4838   89.8370   14.7397 C.ar    1  UNL1       -0.0043
     29 C          64.8341   88.4885   14.6427 C.ar    1  UNL1       -0.0003
     30 C          63.4504   88.3616   14.0778 C.ar    1  UNL1       -0.0000
     31 C          62.7163   89.5831   13.6100 C.ar    1  UNL1        0.0003
     32 C          63.3660   90.9317   13.7071 C.ar    1  UNL1       -0.0042
     33 C          66.7731   92.5372   14.9572 C.3     1  UNL1        0.0050
     34 C          65.3994   92.4071   14.3690 C.3     1  UNL1        0.0264
     35 C          62.3712   90.9498   10.8200 C.3     1  UNL1        0.0329
     36 C          63.4044   91.7548   10.0889 C.3     1  UNL1        0.0241
     37 C          64.5953   92.2926   10.8253 C.3     1  UNL1        0.0928
     38 N          65.3574   93.4586   10.2690 N.am    1  UNL1       -0.2707
     39 C          66.8196   93.6101   10.5674 C.2     1  UNL1        0.4017
     40 O          67.5197   92.5956   11.4222 O.2     1  UNL1       -0.2264
     41 H          64.8980   94.1245    9.7080 H       1  UNL1        0.1527
     42 O          67.5817   94.7761   10.0110 O.3     1  UNL1       -0.4306
     43 C          67.4672   95.1215    8.5558 C.3     1  UNL1        0.2573
@<TRIPOS>BOND
     1    33    34    1
     2    34    27    1
     3    27    28   ar
     4    28    29   ar
     5    29    30   ar
     6    30    31   ar
     7    31    20    1
     8    20    21   ar
     9    21    22    1
    10    21    23   ar
    11    23    24   ar
    12    24    25   ar
    13    25    26   ar
    14    26     1    1
    15     1     2    1
    16     1    35    1
    17    35    36    1
    18    36    37    1
    19    37    38    1
    20    38    39   am
    21    39    40    2
    22    39    42    1
    23    42    43    1
    24     4     1    1
    25     4     5    1
    26     5     6    1
    27     6     7    1
    28     7     8    1
    29     8     9   am
    30     9    10    2
    31    12     9    1
    32    12    13    1
    33    13    14    1
    34    14    15    1
    35    15    16    1
    36    15    17    1
    37     8    11    1
    38    31    32   ar
    39    32    27   ar
    40    26    20   ar
    41    11     4    1
    42    17    12    1
    43     2     3    1
    44    38    41    1
    45    16    18    1
    46    16    19    1
@<TRIPOS>MOLECULE
*****
 43 46 0 0 0
SMALL
GASTEIGER

@<TRIPOS>ATOM
      1 C          60.6138   89.0352   12.0728 C.3     1  UNL1        0.1085
      2 O          60.5454   90.0354   13.1885 O.3     1  UNL1       -0.3826
      3 H          59.9068   89.7345   13.8537 H       1  UNL1        0.2107
      4 C          61.6370   89.8823   11.3761 C.3     1  UNL1        0.0484
      5 C          61.5715   90.0664    9.8889 C.3     1  UNL1        0.0061
      6 C          62.5948   90.9135    9.1922 C.3     1  UNL1        0.0217
      7 C          63.6836   91.5765    9.9828 C.3     1  UNL1        0.0934
      8 N          63.7491   91.3924   11.4700 N.am    1  UNL1       -0.2795
      9 C          64.8379   92.0554   12.2605 C.2     1  UNL1        0.2252
     10 O          64.9034   91.8713   13.7478 O.2     1  UNL1       -0.2749
     11 C          62.7259   90.5453   12.1666 C.3     1  UNL1        0.0960
     12 C          65.8612   92.9025   11.5639 C.3     1  UNL1        0.0781
     13 C          65.8063   94.3921   11.3962 C.3     1  UNL1        0.0105
     14 C          67.0302   94.8189   10.6412 C.3     1  UNL1        0.0160
     15 C          67.8415   93.5932   10.3423 C.3     1  UNL1        0.0513
     16 N          69.1461   93.5580    9.6030 N.3     1  UNL1       -0.3222
     17 C          67.1190   92.4088   10.9125 C.3     1  UNL1        0.0245
     18 H          69.4067   94.5050    9.3279 H       1  UNL1        0.1188
     19 H          69.0496   92.9765    8.7706 H       1  UNL1        0.1188
     20 C          61.6414   86.8846   11.0387 C.ar    1  UNL1        0.0088
     21 C          61.7099   85.8844    9.9230 C.ar    1  UNL1        0.0574
     22 CL         62.6691   84.7341   10.0048 Cl      1  UNL1       -0.0823
     23 C          60.8191   86.0345    8.7255 C.ar    1  UNL1        0.0114
     24 C          59.8599   87.1848    8.6437 C.ar    1  UNL1        0.0006
     25 C          59.7915   88.1850    9.7595 C.ar    1  UNL1       -0.0020
     26 C          60.6822   88.0349   10.9570 C.ar    1  UNL1        0.0026
     27 C          63.4474   85.2910   14.1929 C.ar    1  UNL1       -0.0222
     28 C          64.3137   86.4344   14.6313 C.ar    1  UNL1       -0.0043
     29 C          64.2892   87.7279   13.8721 C.ar    1  UNL1       -0.0003
     30 C          63.3985   87.8780   12.6746 C.ar    1  UNL1       -0.0000
     31 C          62.5322   86.7346   12.2363 C.ar    1  UNL1        0.0003
     32 C          62.5567   85.4411   12.9954 C.ar    1  UNL1       -0.0042
     33 C          62.4662   82.9280   14.6442 C.3     1  UNL1        0.0050
     34 C          63.4718   83.9975   14.9521 C.3     1  UNL1        0.0264
     35 C          59.5905   88.1881   12.7694 C.3     1  UNL1        0.0329
     36 C          58.7713   88.7669   13.8847 C.3     1  UNL1        0.0241
     37 C          59.2106   88.5901   15.3079 C.3     1  UNL1        0.0928
     38 N          60.5663   89.0655   15.7390 N.am    1  UNL1       -0.2707
     39 C          61.4749   88.1485   16.5029 C.2     1  UNL1        0.4017
     40 O          61.0276   86.7559   16.8358 O.2     1  UNL1       -0.2264
     41 H          60.8599   89.9795   15.5205 H       1  UNL1        0.1527
     42 O          62.8306   88.6240   16.9339 O.3     1  UNL1       -0.4306
     43 C          63.3320   89.9654   16.4873 C.3     1  UNL1        0.2573
@<TRIPOS>BOND
     1    33    34    1
     2    34    27    1
     3    27    28   ar
     4    28    29   ar
     5    29    30   ar
     6    30    31   ar
     7    31    20    1
     8    20    21   ar
     9    21    22    1
    10    21    23   ar
    11    23    24   ar
    12    24    25   ar
    13    25    26   ar
    14    26     1    1
    15     1     2    1
    16     1    35    1
    17    35    36    1
    18    36    37    1
    19    37    38    1
    20    38    39   am
    21    39    40    2
    22    39    42    1
    23    42    43    1
    24     4     1    1
    25     4     5    1
    26     5     6    1
    27     6     7    1
    28     7     8    1
    29     8     9   am
    30     9    10    2
    31    12     9    1
    32    12    13    1
    33    13    14    1
    34    14    15    1
    35    15    16    1
    36    15    17    1
    37     8    11    1
    38    31    32   ar
    39    32    27   ar
    40    26    20   ar
    41    11     4    1
    42    17    12    1
    43     2     3    1
    44    38    41    1
    45    16    18    1
    46    16    19    1
