@<TRIPOS>MOLECULE
*****
 31 34 0 0 0
SMALL
GASTEIGER

@<TRIPOS>ATOM
      1 C          65.2760   92.0899   12.8242 C.ar    1  UNL1        0.1104
      2 C          66.0179   91.7853   14.0919 C.ar    1  UNL1        0.0185
      3 C          65.6710   90.5628   14.8887 C.ar    1  UNL1       -0.0013
      4 C          64.5822   89.6447   14.4179 C.ar    1  UNL1       -0.0024
      5 C          63.8403   89.9492   13.1503 C.ar    1  UNL1       -0.0013
      6 C          64.1872   91.1718   12.3534 C.ar    1  UNL1        0.0185
      7 S          65.6229   93.3125   12.0274 S.O2    1  UNL1        0.0305
      8 O          66.2061   93.9471   13.2551 O.2     1  UNL1       -0.1641
      9 O          65.0397   92.6779   10.7998 O.2     1  UNL1       -0.1641
     10 N          66.3779   96.0381    9.3692 N.ar    1  UNL1       -0.2500
     11 C          65.9702   94.6416    9.7344 C.ar    1  UNL1        0.1153
     12 C          65.9698   94.5350   11.2307 C.ar    1  UNL1        0.1497
     13 C          66.3773   95.8658   11.7902 C.ar    1  UNL1        0.1404
     14 N          66.6295   96.7947   10.6398 N.ar    1  UNL1       -0.1663
     15 C          67.8702   96.8551    7.4057 C.3     1  UNL1        0.0263
     16 C          66.5107   96.5825    7.9778 C.3     1  UNL1        0.1054
     17 C          65.2840   96.8543    7.1586 C.3     1  UNL1        0.0263
     18 C          64.2353   88.4221   15.2147 C.3     1  UNL1        0.1177
     19 N          64.0365   87.1067   14.5218 N.am    1  UNL1       -0.2847
     20 C          63.4907   85.9339   15.2811 C.2     1  UNL1        0.3047
     21 O          63.1437   86.0765   16.7334 O.2     1  UNL1       -0.2526
     22 N          63.2919   84.6185   14.5881 N.am    1  UNL1       -0.2560
     23 C          62.7581   83.3641   15.2138 C.3     1  UNL1        0.1218
     24 C          62.7283   82.2968   14.1602 C.ar    1  UNL1       -0.0016
     25 C          62.2985   80.8603   14.1985 C.ar    1  UNL1        0.0178
     26 C          62.3840   80.0186   12.9600 C.ar    1  UNL1        0.0986
     27 N          62.8995   80.6134   11.6831 N.ar    1  UNL1       -0.2426
     28 C          63.3294   82.0499   11.6447 C.ar    1  UNL1        0.0960
     29 C          63.2438   82.8916   12.8833 C.ar    1  UNL1        0.0146
     30 C          63.5921   84.3265   13.1478 C.3     1  UNL1        0.1233
     31 H          64.2642   87.0131   13.5686 H       1  UNL1        0.1513
@<TRIPOS>BOND
     1    15    16    1
     2    16    17    1
     3    16    10    1
     4    10    11   ar
     5    11    12   ar
     6    12     7    1
     7     7     8    2
     8     7     9    2
     9     7     1    1
    10     1     2   ar
    11     2     3   ar
    12     3     4   ar
    13     4    18    1
    14    18    19    1
    15    19    20   am
    16    20    21    2
    17    20    22   am
    18    22    23    1
    19    23    24    1
    20    24    25   ar
    21    25    26   ar
    22    26    27   ar
    23    27    28   ar
    24    28    29   ar
    25    29    30    1
    26     4     5   ar
    27     5     6   ar
    28    12    13   ar
    29    13    14   ar
    30    14    10   ar
    31     6     1   ar
    32    30    22    1
    33    29    24   ar
    34    19    31    1
@<TRIPOS>MOLECULE
*****
 31 34 0 0 0
SMALL
GASTEIGER

@<TRIPOS>ATOM
      1 C          61.0150   87.1077    9.6661 C.ar    1  UNL1        0.1104
      2 C          60.2521   86.5147    8.5187 C.ar    1  UNL1        0.0185
      3 C          59.6368   87.4101    7.4845 C.ar    1  UNL1       -0.0013
      4 C          59.7843   88.8985    7.5976 C.ar    1  UNL1       -0.0024
      5 C          60.5471   89.4915    8.7449 C.ar    1  UNL1       -0.0013
      6 C          61.1625   88.5961    9.7792 C.ar    1  UNL1        0.0185
      7 S          61.6303   86.2123   10.7003 S.O2    1  UNL1        0.0305
      8 O          60.8652   86.9271   11.7743 O.2     1  UNL1       -0.1641
      9 O          62.3954   85.4975    9.6262 O.2     1  UNL1       -0.1641
     10 N          62.8162   83.3547   13.0440 N.ar    1  UNL1       -0.2500
     11 C          61.9984   83.8452   11.8861 C.ar    1  UNL1        0.1153
     12 C          62.2456   85.3169   11.7344 C.ar    1  UNL1        0.1497
     13 C          63.2162   85.7360   12.7985 C.ar    1  UNL1        0.1404
     14 N          63.5689   84.5233   13.6079 N.ar    1  UNL1       -0.1663
     15 C          61.6139   81.2542   13.9886 C.3     1  UNL1        0.0263
     16 C          62.8717   81.9434   13.5492 C.3     1  UNL1        0.1054
     17 C          64.1847   81.2215   13.6151 C.3     1  UNL1        0.0263
     18 C          59.1689   89.7939    6.5634 C.3     1  UNL1        0.1177
     19 N          60.0359   90.4599    5.5364 N.am    1  UNL1       -0.2847
     20 C          59.4843   91.5750    4.6983 C.2     1  UNL1        0.3047
     21 O          58.0656   92.0240    4.8873 O.2     1  UNL1       -0.2526
     22 N          60.3513   92.2410    3.6713 N.am    1  UNL1       -0.2560
     23 C          59.9406   93.3630    2.7645 C.3     1  UNL1        0.1218
     24 C          61.1167   93.7174    1.9036 C.ar    1  UNL1       -0.0016
     25 C          61.2988   94.7457    0.8268 C.ar    1  UNL1        0.0178
     26 C          62.6184   94.8709    0.1248 C.ar    1  UNL1        0.0986
     27 N          63.7559   93.9679    0.4995 N.ar    1  UNL1       -0.2426
     28 C          63.5739   92.9396    1.5763 C.ar    1  UNL1        0.0960
     29 C          62.2543   92.8143    2.2783 C.ar    1  UNL1        0.0146
     30 C          61.7812   91.9019    3.3708 C.3     1  UNL1        0.1233
     31 H          60.9670   90.1652    5.4123 H       1  UNL1        0.1513
@<TRIPOS>BOND
     1    15    16    1
     2    16    17    1
     3    16    10    1
     4    10    11   ar
     5    11    12   ar
     6    12     7    1
     7     7     8    2
     8     7     9    2
     9     7     1    1
    10     1     2   ar
    11     2     3   ar
    12     3     4   ar
    13     4    18    1
    14    18    19    1
    15    19    20   am
    16    20    21    2
    17    20    22   am
    18    22    23    1
    19    23    24    1
    20    24    25   ar
    21    25    26   ar
    22    26    27   ar
    23    27    28   ar
    24    28    29   ar
    25    29    30    1
    26     4     5   ar
    27     5     6   ar
    28    12    13   ar
    29    13    14   ar
    30    14    10   ar
    31     6     1   ar
    32    30    22    1
    33    29    24   ar
    34    19    31    1
@<TRIPOS>MOLECULE
*****
 31 34 0 0 0
SMALL
GASTEIGER

@<TRIPOS>ATOM
      1 C          64.7631   90.9349   14.2176 C.ar    1  UNL1        0.1104
      2 C          64.3275   91.3008   15.6056 C.ar    1  UNL1        0.0185
      3 C          63.7455   90.2546   16.5093 C.ar    1  UNL1       -0.0013
      4 C          63.5989   88.8425   16.0250 C.ar    1  UNL1       -0.0024
      5 C          64.0345   88.4766   14.6371 C.ar    1  UNL1       -0.0013
      6 C          64.6166   89.5228   13.7334 C.ar    1  UNL1        0.0185
      7 S          65.3452   91.9811   13.3140 S.O2    1  UNL1        0.0305
      8 O          66.3667   92.3162   14.3600 O.2     1  UNL1       -0.1641
      9 O          64.3237   91.6459   12.2680 O.2     1  UNL1       -0.1641
     10 N          66.8988   94.1258   10.4764 N.ar    1  UNL1       -0.2500
     11 C          66.3919   92.8147   11.0000 C.ar    1  UNL1        0.1153
     12 C          65.9273   93.0272   12.4103 C.ar    1  UNL1        0.1497
     13 C          66.1470   94.4697   12.7583 C.ar    1  UNL1        0.1404
     14 N          66.7474   95.1486   11.5631 N.ar    1  UNL1       -0.1663
     15 C          68.3090   93.3267    8.4459 C.3     1  UNL1        0.0263
     16 C          67.4587   94.3709    9.1066 C.3     1  UNL1        0.1054
     17 C          67.1683   95.6603    8.3974 C.3     1  UNL1        0.0263
     18 C          63.0168   87.7963   16.9288 C.3     1  UNL1        0.1177
     19 N          62.6436   86.4522   16.3773 N.am    1  UNL1       -0.2847
     20 C          63.6782   85.6087   15.6931 C.2     1  UNL1        0.3047
     21 O          65.0860   86.1093   15.5605 O.2     1  UNL1       -0.2526
     22 N          63.3051   84.2646   15.1416 N.am    1  UNL1       -0.2560
     23 C          64.2265   83.3144   14.4359 C.3     1  UNL1        0.1218
     24 C          63.4359   82.0972   14.0571 C.ar    1  UNL1       -0.0016
     25 C          63.8178   80.8342   13.3437 C.ar    1  UNL1        0.0178
     26 C          62.7896   79.7692   13.1019 C.ar    1  UNL1        0.0986
     27 N          61.3795   79.9672   13.5735 N.ar    1  UNL1       -0.2426
     28 C          60.9976   81.2302   14.2869 C.ar    1  UNL1        0.0960
     29 C          62.0258   82.2952   14.5287 C.ar    1  UNL1        0.0146
     30 C          61.9450   83.6347   15.1989 C.3     1  UNL1        0.1233
     31 H          61.7197   86.1237   16.4643 H       1  UNL1        0.1513
@<TRIPOS>BOND
     1    15    16    1
     2    16    17    1
     3    16    10    1
     4    10    11   ar
     5    11    12   ar
     6    12     7    1
     7     7     8    2
     8     7     9    2
     9     7     1    1
    10     1     2   ar
    11     2     3   ar
    12     3     4   ar
    13     4    18    1
    14    18    19    1
    15    19    20   am
    16    20    21    2
    17    20    22   am
    18    22    23    1
    19    23    24    1
    20    24    25   ar
    21    25    26   ar
    22    26    27   ar
    23    27    28   ar
    24    28    29   ar
    25    29    30    1
    26     4     5   ar
    27     5     6   ar
    28    12    13   ar
    29    13    14   ar
    30    14    10   ar
    31     6     1   ar
    32    30    22    1
    33    29    24   ar
    34    19    31    1
@<TRIPOS>MOLECULE
*****
 31 34 0 0 0
SMALL
GASTEIGER

@<TRIPOS>ATOM
      1 C          60.8521   92.5369    2.9955 C.ar    1  UNL1        0.1104
      2 C          59.3979   92.7137    3.3182 C.ar    1  UNL1        0.0185
      3 C          58.7710   91.9110    4.4194 C.ar    1  UNL1       -0.0013
      4 C          59.5983   90.9315    5.1979 C.ar    1  UNL1       -0.0024
      5 C          61.0524   90.7547    4.8753 C.ar    1  UNL1       -0.0013
      6 C          61.6794   91.5574    3.7741 C.ar    1  UNL1        0.0185
      7 S          61.4790   93.3396    1.8943 S.O2    1  UNL1        0.0305
      8 O          60.4329   94.3998    2.0717 O.2     1  UNL1       -0.1641
      9 O          62.5251   92.2793    1.7170 O.2     1  UNL1       -0.1641
     10 N          63.2693   94.7439   -1.2502 N.ar    1  UNL1       -0.2500
     11 C          62.7959   93.5890   -0.4184 C.ar    1  UNL1        0.1153
     12 C          62.1059   94.1423    0.7932 C.ar    1  UNL1        0.1497
     13 C          62.1529   95.6392    0.7102 C.ar    1  UNL1        0.1404
     14 N          62.8719   96.0111   -0.5527 N.ar    1  UNL1       -0.1663
     15 C          64.8525   95.7975   -3.0204 C.3     1  UNL1        0.0263
     16 C          64.0100   94.6486   -2.5510 C.3     1  UNL1        0.1054
     17 C          63.9084   93.4043   -3.3825 C.3     1  UNL1        0.0263
     18 C          58.9713   90.1288    6.2992 C.3     1  UNL1        0.1177
     19 N          59.7906   89.7149    7.4855 N.am    1  UNL1       -0.2847
     20 C          59.8314   88.2749    7.9033 C.2     1  UNL1        0.3047
     21 O          59.0528   87.2487    7.1347 O.2     1  UNL1       -0.2526
     22 N          60.6507   87.8610    9.0897 N.am    1  UNL1       -0.2560
     23 C          60.7877   86.4658    9.6231 C.3     1  UNL1        0.1218
     24 C          61.6985   86.5122   10.8140 C.ar    1  UNL1       -0.0016
     25 C          62.1950   85.4418   11.7402 C.ar    1  UNL1        0.0178
     26 C          63.1175   85.7954   12.8688 C.ar    1  UNL1        0.0986
     27 N          63.5435   87.2193   13.0714 N.ar    1  UNL1       -0.2426
     28 C          63.0470   88.2896   12.1453 C.ar    1  UNL1        0.0960
     29 C          62.1245   87.9361   11.0166 C.ar    1  UNL1        0.0146
     30 C          61.4769   88.7697    9.9509 C.3     1  UNL1        0.1233
     31 H          60.3016   90.3885    7.9900 H       1  UNL1        0.1513
@<TRIPOS>BOND
     1    15    16    1
     2    16    17    1
     3    16    10    1
     4    10    11   ar
     5    11    12   ar
     6    12     7    1
     7     7     8    2
     8     7     9    2
     9     7     1    1
    10     1     2   ar
    11     2     3   ar
    12     3     4   ar
    13     4    18    1
    14    18    19    1
    15    19    20   am
    16    20    21    2
    17    20    22   am
    18    22    23    1
    19    23    24    1
    20    24    25   ar
    21    25    26   ar
    22    26    27   ar
    23    27    28   ar
    24    28    29   ar
    25    29    30    1
    26     4     5   ar
    27     5     6   ar
    28    12    13   ar
    29    13    14   ar
    30    14    10   ar
    31     6     1   ar
    32    30    22    1
    33    29    24   ar
    34    19    31    1
@<TRIPOS>MOLECULE
*****
 31 34 0 0 0
SMALL
GASTEIGER

@<TRIPOS>ATOM
      1 C          63.5688   85.1746   13.5413 C.ar    1  UNL1        0.1104
      2 C          63.1577   86.2424   12.5711 C.ar    1  UNL1        0.0185
      3 C          63.4611   87.6813   12.8666 C.ar    1  UNL1       -0.0013
      4 C          64.1756   88.0526   14.1321 C.ar    1  UNL1       -0.0024
      5 C          64.5867   86.9850   15.1022 C.ar    1  UNL1       -0.0013
      6 C          64.2833   85.5459   14.8068 C.ar    1  UNL1        0.0185
      7 S          63.2653   83.7357   13.2458 S.O2    1  UNL1        0.0305
      8 O          62.2800   83.7113   14.3765 O.2     1  UNL1       -0.1641
      9 O          64.2507   83.7601   12.1152 O.2     1  UNL1       -0.1641
     10 N          62.7103   80.1830   11.7844 N.ar    1  UNL1       -0.2500
     11 C          63.1320   81.6138   11.6258 C.ar    1  UNL1        0.1153
     12 C          62.9619   82.2968   12.9504 C.ar    1  UNL1        0.1497
     13 C          62.4350   81.2882   13.9277 C.ar    1  UNL1        0.1404
     14 N          62.2796   79.9818   13.2071 N.ar    1  UNL1       -0.1663
     15 C          62.6836   77.6833   11.0768 C.3     1  UNL1        0.0263
     16 C          62.7180   79.1372   10.7092 C.3     1  UNL1        0.1054
     17 C          62.7601   79.5451    9.2664 C.3     1  UNL1        0.0263
     18 C          64.4791   89.4916   14.4275 C.3     1  UNL1        0.1177
     19 N          64.9577   90.3974   13.3319 N.am    1  UNL1       -0.2847
     20 C          65.2363   91.8426   13.6215 C.2     1  UNL1        0.3047
     21 O          65.0363   92.3819   15.0068 O.2     1  UNL1       -0.2526
     22 N          65.7149   92.7483   12.5258 N.am    1  UNL1       -0.2560
     23 C          66.0330   94.2077   12.6641 C.3     1  UNL1        0.1218
     24 C          66.4741   94.7151   11.3233 C.ar    1  UNL1       -0.0016
     25 C          66.9113   96.0724   10.8579 C.ar    1  UNL1        0.0178
     26 C          67.3031   96.2839    9.4256 C.ar    1  UNL1        0.0986
     27 N          67.2577   95.1382    8.4585 N.ar    1  UNL1       -0.2426
     28 C          66.8205   93.7809    8.9239 C.ar    1  UNL1        0.0960
     29 C          66.4287   93.5693   10.3562 C.ar    1  UNL1        0.0146
     30 C          65.9595   92.3538   11.0995 C.3     1  UNL1        0.1233
     31 H          65.0889   90.0434   12.4227 H       1  UNL1        0.1513
@<TRIPOS>BOND
     1    15    16    1
     2    16    17    1
     3    16    10    1
     4    10    11   ar
     5    11    12   ar
     6    12     7    1
     7     7     8    2
     8     7     9    2
     9     7     1    1
    10     1     2   ar
    11     2     3   ar
    12     3     4   ar
    13     4    18    1
    14    18    19    1
    15    19    20   am
    16    20    21    2
    17    20    22   am
    18    22    23    1
    19    23    24    1
    20    24    25   ar
    21    25    26   ar
    22    26    27   ar
    23    27    28   ar
    24    28    29   ar
    25    29    30    1
    26     4     5   ar
    27     5     6   ar
    28    12    13   ar
    29    13    14   ar
    30    14    10   ar
    31     6     1   ar
    32    30    22    1
    33    29    24   ar
    34    19    31    1
@<TRIPOS>MOLECULE
*****
 31 34 0 0 0
SMALL
GASTEIGER

@<TRIPOS>ATOM
      1 C          71.7640   75.8088   14.2442 C.ar    1  UNL1        0.1104
      2 C          72.2192   77.0220   14.9998 C.ar    1  UNL1        0.0185
      3 C          72.4219   78.3220   14.2794 C.ar    1  UNL1       -0.0013
      4 C          72.1693   78.4088   12.8034 C.ar    1  UNL1       -0.0024
      5 C          71.7141   77.1956   12.0478 C.ar    1  UNL1       -0.0013
      6 C          71.5115   75.8956   12.7682 C.ar    1  UNL1        0.0185
      7 S          71.5614   74.5088   14.9646 S.O2    1  UNL1        0.0305
      8 O          70.7852   73.9814   13.7945 O.2     1  UNL1       -0.1641
      9 O          72.3375   75.0363   16.1348 O.2     1  UNL1       -0.1641
     10 N          71.3188   70.8377   16.2011 N.ar    1  UNL1       -0.2500
     11 C          71.6796   71.8449   15.1498 C.ar    1  UNL1        0.1153
     12 C          71.3587   73.2089   15.6850 C.ar    1  UNL1        0.1497
     13 C          70.7996   73.0447   17.0672 C.ar    1  UNL1        0.1404
     14 N          70.7749   71.5793   17.3862 N.ar    1  UNL1       -0.1663
     15 C          71.7880   68.5335   17.3060 C.3     1  UNL1        0.0263
     16 C          71.4746   69.3501   16.0874 C.3     1  UNL1        0.1054
     17 C          71.3170   68.6792   14.7552 C.3     1  UNL1        0.0263
     18 C          72.3720   79.7088   12.0830 C.3     1  UNL1        0.1177
     19 N          72.6107   79.7164   10.6021 N.am    1  UNL1       -0.2847
     20 C          72.4523   80.9885    9.8234 C.2     1  UNL1        0.3047
     21 O          72.0551   82.2531   10.5255 O.2     1  UNL1       -0.2526
     22 N          72.6910   80.9960    8.3425 N.am    1  UNL1       -0.2560
     23 C          72.5719   82.1853    7.4363 C.3     1  UNL1        0.1218
     24 C          72.8980   81.7399    6.0415 C.ar    1  UNL1       -0.0016
     25 C          72.9444   82.4788    4.7370 C.ar    1  UNL1        0.0178
     26 C          73.3115   81.7530    3.4767 C.ar    1  UNL1        0.0986
     27 N          73.6323   80.2884    3.5209 N.ar    1  UNL1       -0.2426
     28 C          73.5859   79.5495    4.8255 C.ar    1  UNL1        0.0960
     29 C          73.2188   80.2753    6.0858 C.ar    1  UNL1        0.0146
     30 C          73.0909   79.8156    7.5079 C.3     1  UNL1        0.1233
     31 H          72.8714   78.8863   10.1413 H       1  UNL1        0.1513
@<TRIPOS>BOND
     1    15    16    1
     2    16    17    1
     3    16    10    1
     4    10    11   ar
     5    11    12   ar
     6    12     7    1
     7     7     8    2
     8     7     9    2
     9     7     1    1
    10     1     2   ar
    11     2     3   ar
    12     3     4   ar
    13     4    18    1
    14    18    19    1
    15    19    20   am
    16    20    21    2
    17    20    22   am
    18    22    23    1
    19    23    24    1
    20    24    25   ar
    21    25    26   ar
    22    26    27   ar
    23    27    28   ar
    24    28    29   ar
    25    29    30    1
    26     4     5   ar
    27     5     6   ar
    28    12    13   ar
    29    13    14   ar
    30    14    10   ar
    31     6     1   ar
    32    30    22    1
    33    29    24   ar
    34    19    31    1
