@<TRIPOS>MOLECULE
*****
 29 31 0 0 0
SMALL
GASTEIGER

@<TRIPOS>ATOM
      1 C          62.7184   85.2920   11.5034 C.ar    1  UNL1        0.1344
      2 C          62.8788   84.9809   10.0449 C.ar    1  UNL1        0.0310
      3 C          62.0116   85.6676    9.0318 C.ar    1  UNL1       -0.0067
      4 C          62.1719   85.3564    7.5732 C.3     1  UNL1        0.0319
      5 C          60.9840   86.6654    9.4773 C.ar    1  UNL1        0.0959
      6 C          60.8236   86.9765   10.9359 C.ar    1  UNL1        0.1393
      7 N          61.6909   86.2898   11.9489 N.ar    1  UNL1       -0.2154
      8 N          63.5857   84.6053   12.5166 N.pl3   1  UNL1       -0.2819
      9 H          64.4730   84.9721   12.7344 H       1  UNL1        0.1551
     10 C          62.0849   79.6188   13.3899 C.3     1  UNL1        0.0515
     11 C          62.4112   81.0679   13.5992 C.ar    1  UNL1        0.0548
     12 C          62.9067   82.0203   12.5516 C.ar    1  UNL1        0.0502
     13 C          63.1011   83.3599   13.1978 C.ar    1  UNL1        0.1539
     14 N          62.7257   83.2355   14.6447 N.ar    1  UNL1       -0.1577
     15 N          62.2993   81.8189   14.8928 N.ar    1  UNL1       -0.2786
     16 H          61.9988   81.4474   15.7536 H       1  UNL1        0.1886
     17 C          60.1167   87.3521    8.4642 C.1     1  UNL1        0.1029
     18 N          59.2495   88.0387    7.4511 N.1     1  UNL1       -0.1907
     19 N          59.7960   87.9743   11.3814 N.pl3   1  UNL1       -0.3145
     20 H          58.8597   87.6957   11.5030 H       1  UNL1        0.1483
     21 C          60.1951   89.3966   11.6414 C.3     1  UNL1        0.1362
     22 C          61.6463   89.7753   11.6696 C.3     1  UNL1        0.2265
     23 O          62.4175   89.6953   12.9537 O.3     1  UNL1       -0.4735
     24 C          63.6781   90.4905   13.1222 C.ar    1  UNL1        0.1417
     25 C          64.5359   90.2881   14.3360 C.ar    1  UNL1        0.0576
     26 C          65.7966   91.0833   14.5045 C.ar    1  UNL1        0.1020
     27 N          66.1995   92.0809   13.4592 N.ar    1  UNL1       -0.2421
     28 C          65.3417   92.2832   12.2454 C.ar    1  UNL1        0.1020
     29 C          64.0810   91.4880   12.0769 C.ar    1  UNL1        0.0576
@<TRIPOS>BOND
     1    10    11    1
     2    11    12   ar
     3    12    13   ar
     4    13     8    1
     5     8     1    1
     6     1     2   ar
     7     2     3   ar
     8     3     4    1
     9     3     5   ar
    10     5    17    1
    11    17    18    3
    12     5     6   ar
    13     6    19    1
    14    19    21    1
    15    21    22    1
    16    22    23    1
    17    23    24    1
    18    24    25   ar
    19    25    26   ar
    20    26    27   ar
    21    27    28   ar
    22    28    29   ar
    23     6     7   ar
    24    13    14   ar
    25    14    15   ar
    26    15    11   ar
    27     7     1   ar
    28    29    24   ar
    29     8     9    1
    30    19    20    1
    31    15    16    1
@<TRIPOS>MOLECULE
*****
 29 31 0 0 0
SMALL
GASTEIGER

@<TRIPOS>ATOM
      1 C          62.4672   85.6822   10.8485 C.ar    1  UNL1        0.1344
      2 C          63.0631   84.4654   10.2048 C.ar    1  UNL1        0.0310
      3 C          63.3571   83.2481   11.0305 C.ar    1  UNL1       -0.0067
      4 C          63.9530   82.0313   10.3868 C.3     1  UNL1        0.0319
      5 C          63.0553   83.2476   12.4998 C.ar    1  UNL1        0.0959
      6 C          62.4594   84.4644   13.1435 C.ar    1  UNL1        0.1393
      7 N          62.1654   85.6817   12.3178 N.ar    1  UNL1       -0.2154
      8 N          62.1732   86.8996   10.0229 N.pl3   1  UNL1       -0.2819
      9 H          62.3023   86.8756    9.0472 H       1  UNL1        0.1551
     10 C          59.0260   90.8044   11.6746 C.3     1  UNL1        0.0515
     11 C          60.2357   89.9483   11.4430 C.ar    1  UNL1        0.0548
     12 C          60.2754   88.6726   10.6550 C.ar    1  UNL1        0.0502
     13 C          61.6823   88.1534   10.6838 C.ar    1  UNL1        0.1539
     14 N          62.5123   89.1083   11.4897 N.ar    1  UNL1       -0.1577
     15 N          61.6183   90.2176   11.9589 N.ar    1  UNL1       -0.2786
     16 H          61.8910   90.9873   12.5088 H       1  UNL1        0.1886
     17 C          63.3493   82.0302   13.3254 C.1     1  UNL1        0.1029
     18 N          63.6434   80.8130   14.1511 N.1     1  UNL1       -0.1907
     19 N          62.1575   84.4639   14.6128 N.pl3   1  UNL1       -0.3145
     20 H          61.2357   84.3176   14.9259 H       1  UNL1        0.1483
     21 C          63.2602   84.6862   15.6051 C.3     1  UNL1        0.1362
     22 C          63.9668   86.0083   15.6574 C.3     1  UNL1        0.2265
     23 O          63.3099   87.1842   16.3176 O.3     1  UNL1       -0.4735
     24 C          63.6464   88.5773   15.8750 C.ar    1  UNL1        0.1417
     25 C          63.2787   89.7478   16.7381 C.ar    1  UNL1        0.0576
     26 C          63.6151   91.1410   16.2955 C.ar    1  UNL1        0.1020
     27 N          64.3192   91.3637   14.9898 N.ar    1  UNL1       -0.2421
     28 C          64.6869   90.1932   14.1268 C.ar    1  UNL1        0.1020
     29 C          64.3504   88.8000   14.5694 C.ar    1  UNL1        0.0576
@<TRIPOS>BOND
     1    10    11    1
     2    11    12   ar
     3    12    13   ar
     4    13     8    1
     5     8     1    1
     6     1     2   ar
     7     2     3   ar
     8     3     4    1
     9     3     5   ar
    10     5    17    1
    11    17    18    3
    12     5     6   ar
    13     6    19    1
    14    19    21    1
    15    21    22    1
    16    22    23    1
    17    23    24    1
    18    24    25   ar
    19    25    26   ar
    20    26    27   ar
    21    27    28   ar
    22    28    29   ar
    23     6     7   ar
    24    13    14   ar
    25    14    15   ar
    26    15    11   ar
    27     7     1   ar
    28    29    24   ar
    29     8     9    1
    30    19    20    1
    31    15    16    1
@<TRIPOS>MOLECULE
*****
 29 31 0 0 0
SMALL
GASTEIGER

@<TRIPOS>ATOM
      1 C          61.9017   89.8464   10.9051 C.ar    1  UNL1        0.1344
      2 C          62.8291   90.9045   10.3853 C.ar    1  UNL1        0.0310
      3 C          63.9305   91.4306   11.2572 C.ar    1  UNL1       -0.0067
      4 C          64.8580   92.4888   10.7374 C.3     1  UNL1        0.0319
      5 C          64.1045   90.8985   12.6488 C.ar    1  UNL1        0.0959
      6 C          63.1771   89.8403   13.1686 C.ar    1  UNL1        0.1393
      7 N          62.0757   89.3143   12.2967 N.ar    1  UNL1       -0.2154
      8 N          60.8002   89.3203   10.0333 N.pl3   1  UNL1       -0.2819
      9 H          59.9635   89.8299    9.9359 H       1  UNL1        0.1551
     10 C          62.9105   84.8538    8.1686 C.3     1  UNL1        0.0515
     11 C          61.9435   85.9648    8.4527 C.ar    1  UNL1        0.0548
     12 C          62.2132   87.1735    9.2991 C.ar    1  UNL1        0.0502
     13 C          60.9735   88.0178    9.3099 C.ar    1  UNL1        0.1539
     14 N          59.9376   87.3310    8.4701 N.ar    1  UNL1       -0.1577
     15 N          60.5370   86.0621    7.9404 N.ar    1  UNL1       -0.2786
     16 H          60.0865   85.4080    7.3586 H       1  UNL1        0.1886
     17 C          65.2060   91.4246   13.5206 C.1     1  UNL1        0.1029
     18 N          66.3074   91.9507   14.3925 N.1     1  UNL1       -0.1907
     19 N          63.3511   89.3082   14.5602 N.pl3   1  UNL1       -0.3145
     20 H          62.7515   89.6090   15.2808 H       1  UNL1        0.1483
     21 C          64.4387   88.3179   14.8540 C.3     1  UNL1        0.1362
     22 C          64.1791   86.8493   14.6933 C.3     1  UNL1        0.2265
     23 O          63.5864   86.3275   13.4179 O.3     1  UNL1       -0.4735
     24 C          63.1655   84.8912   13.3191 C.ar    1  UNL1        0.1417
     25 C          62.7562   84.1429   14.5530 C.ar    1  UNL1        0.0576
     26 C          62.3353   82.7066   14.4542 C.ar    1  UNL1        0.1020
     27 N          62.3238   82.0185   13.1213 N.ar    1  UNL1       -0.2421
     28 C          62.7332   82.7667   11.8874 C.ar    1  UNL1        0.1020
     29 C          63.1540   84.2030   11.9863 C.ar    1  UNL1        0.0576
@<TRIPOS>BOND
     1    10    11    1
     2    11    12   ar
     3    12    13   ar
     4    13     8    1
     5     8     1    1
     6     1     2   ar
     7     2     3   ar
     8     3     4    1
     9     3     5   ar
    10     5    17    1
    11    17    18    3
    12     5     6   ar
    13     6    19    1
    14    19    21    1
    15    21    22    1
    16    22    23    1
    17    23    24    1
    18    24    25   ar
    19    25    26   ar
    20    26    27   ar
    21    27    28   ar
    22    28    29   ar
    23     6     7   ar
    24    13    14   ar
    25    14    15   ar
    26    15    11   ar
    27     7     1   ar
    28    29    24   ar
    29     8     9    1
    30    19    20    1
    31    15    16    1
@<TRIPOS>MOLECULE
*****
 29 31 0 0 0
SMALL
GASTEIGER

@<TRIPOS>ATOM
      1 C          61.7373   89.0037   11.4617 C.ar    1  UNL1        0.1344
      2 C          60.9595   89.5044   10.2810 C.ar    1  UNL1        0.0310
      3 C          60.5865   88.5627    9.1747 C.ar    1  UNL1       -0.0067
      4 C          59.8086   89.0634    7.9938 C.3     1  UNL1        0.0319
      5 C          60.9914   87.1203    9.2491 C.ar    1  UNL1        0.0959
      6 C          61.7693   86.6196   10.4298 C.ar    1  UNL1        0.1393
      7 N          62.1422   87.5613   11.5361 N.ar    1  UNL1       -0.2154
      8 N          62.1104   89.9454   12.5682 N.pl3   1  UNL1       -0.2819
      9 H          61.5725   89.9743   13.3923 H       1  UNL1        0.1551
     10 C          65.9349   92.9035   10.4463 C.3     1  UNL1        0.0515
     11 C          65.0608   92.2027   11.4436 C.ar    1  UNL1        0.0548
     12 C          63.8791   91.3356   11.1247 C.ar    1  UNL1        0.0502
     13 C          63.3028   90.8430   12.4190 C.ar    1  UNL1        0.1539
     14 N          64.1283   91.4056   13.5379 N.ar    1  UNL1       -0.1577
     15 N          65.2148   92.2460   12.9351 N.ar    1  UNL1       -0.2786
     16 H          65.9075   92.7393   13.4313 H       1  UNL1        0.1886
     17 C          60.6184   86.1785    8.1426 C.1     1  UNL1        0.1029
     18 N          60.2453   85.2369    7.0363 N.1     1  UNL1       -0.1907
     19 N          62.1741   85.1772   10.5042 N.pl3   1  UNL1       -0.3145
     20 H          61.6400   84.5427   11.0347 H       1  UNL1        0.1483
     21 C          63.3928   84.7014    9.7704 C.3     1  UNL1        0.1362
     22 C          63.8694   83.2898    9.9439 C.3     1  UNL1        0.2265
     23 O          64.7047   82.9212   11.1341 O.3     1  UNL1       -0.4735
     24 C          64.0977   82.9228   12.5058 C.ar    1  UNL1        0.1417
     25 C          62.9925   81.9645   12.8381 C.ar    1  UNL1        0.0576
     26 C          62.3856   81.9661   14.2098 C.ar    1  UNL1        0.1020
     27 N          62.8838   82.9260   15.2492 N.ar    1  UNL1       -0.2421
     28 C          63.9889   83.8843   14.9169 C.ar    1  UNL1        0.1020
     29 C          64.5959   83.8827   13.5452 C.ar    1  UNL1        0.0576
@<TRIPOS>BOND
     1    10    11    1
     2    11    12   ar
     3    12    13   ar
     4    13     8    1
     5     8     1    1
     6     1     2   ar
     7     2     3   ar
     8     3     4    1
     9     3     5   ar
    10     5    17    1
    11    17    18    3
    12     5     6   ar
    13     6    19    1
    14    19    21    1
    15    21    22    1
    16    22    23    1
    17    23    24    1
    18    24    25   ar
    19    25    26   ar
    20    26    27   ar
    21    27    28   ar
    22    28    29   ar
    23     6     7   ar
    24    13    14   ar
    25    14    15   ar
    26    15    11   ar
    27     7     1   ar
    28    29    24   ar
    29     8     9    1
    30    19    20    1
    31    15    16    1
@<TRIPOS>MOLECULE
*****
 29 31 0 0 0
SMALL
GASTEIGER

@<TRIPOS>ATOM
      1 C          64.3425   90.5548   14.1709 C.ar    1  UNL1        0.1344
      2 C          63.8001   91.1722   12.9161 C.ar    1  UNL1        0.0310
      3 C          63.1891   90.3039   11.8565 C.ar    1  UNL1       -0.0067
      4 C          62.6467   90.9213   10.6016 C.3     1  UNL1        0.0319
      5 C          63.1206   88.8182   12.0517 C.ar    1  UNL1        0.0959
      6 C          63.6630   88.2009   13.3065 C.ar    1  UNL1        0.1393
      7 N          64.2740   89.0691   14.3661 N.ar    1  UNL1       -0.2154
      8 N          64.9535   91.4231   15.2305 N.pl3   1  UNL1       -0.2819
      9 H          64.4346   91.6592   16.0331 H       1  UNL1        0.1551
     10 C          69.4568   94.0701   16.0013 C.3     1  UNL1        0.0515
     11 C          68.4251   93.1483   15.4216 C.ar    1  UNL1        0.0548
     12 C          67.0383   92.9329   15.9510 C.ar    1  UNL1        0.0502
     13 C          66.3552   91.9317   15.0673 C.ar    1  UNL1        0.1539
     14 N          67.3198   91.5283   13.9918 N.ar    1  UNL1       -0.1577
     15 N          68.5992   92.2802   14.2107 N.ar    1  UNL1       -0.2786
     16 H          69.4106   92.2154   13.6569 H       1  UNL1        0.1886
     17 C          62.5096   87.9500   10.9920 C.1     1  UNL1        0.1029
     18 N          61.8987   87.0817    9.9324 N.1     1  UNL1       -0.1907
     19 N          63.5945   86.7152   13.5017 N.pl3   1  UNL1       -0.3145
     20 H          63.1118   86.1551   12.8517 H       1  UNL1        0.1483
     21 C          64.2615   86.0830   14.6871 C.3     1  UNL1        0.1362
     22 C          63.6956   84.8295   15.2860 C.3     1  UNL1        0.2265
     23 O          62.4510   84.2198   14.7123 O.3     1  UNL1       -0.4735
     24 C          62.5437   82.9934   13.8536 C.ar    1  UNL1        0.1417
     25 C          61.9790   81.6920   14.3410 C.ar    1  UNL1        0.0576
     26 C          62.0718   80.4657   13.4823 C.ar    1  UNL1        0.1020
     27 N          62.7292   80.5407   12.1361 N.ar    1  UNL1       -0.2421
     28 C          63.2939   81.8420   11.6487 C.ar    1  UNL1        0.1020
     29 C          63.2012   83.0684   12.5074 C.ar    1  UNL1        0.0576
@<TRIPOS>BOND
     1    10    11    1
     2    11    12   ar
     3    12    13   ar
     4    13     8    1
     5     8     1    1
     6     1     2   ar
     7     2     3   ar
     8     3     4    1
     9     3     5   ar
    10     5    17    1
    11    17    18    3
    12     5     6   ar
    13     6    19    1
    14    19    21    1
    15    21    22    1
    16    22    23    1
    17    23    24    1
    18    24    25   ar
    19    25    26   ar
    20    26    27   ar
    21    27    28   ar
    22    28    29   ar
    23     6     7   ar
    24    13    14   ar
    25    14    15   ar
    26    15    11   ar
    27     7     1   ar
    28    29    24   ar
    29     8     9    1
    30    19    20    1
    31    15    16    1
@<TRIPOS>MOLECULE
*****
 29 31 0 0 0
SMALL
GASTEIGER

@<TRIPOS>ATOM
      1 C          64.1363   90.8707   14.8353 C.ar    1  UNL1        0.1344
      2 C          65.3076   91.7043   15.2631 C.ar    1  UNL1        0.0310
      3 C          66.0631   92.5121   14.2499 C.ar    1  UNL1       -0.0067
      4 C          67.2345   93.3458   14.6776 C.3     1  UNL1        0.0319
      5 C          65.6473   92.4862   12.8089 C.ar    1  UNL1        0.0959
      6 C          64.4760   91.6526   12.3811 C.ar    1  UNL1        0.1393
      7 N          63.7205   90.8448   13.3944 N.ar    1  UNL1       -0.2154
      8 N          63.3807   90.0629   15.8486 N.pl3   1  UNL1       -0.2819
      9 H          62.7995   90.5134   16.5032 H       1  UNL1        0.1551
     10 C          64.8049   85.1325   14.6061 C.3     1  UNL1        0.0515
     11 C          64.1652   86.3024   15.2933 C.ar    1  UNL1        0.0548
     12 C          64.3227   87.7440   14.9102 C.ar    1  UNL1        0.0502
     13 C          63.5106   88.5686   15.8644 C.ar    1  UNL1        0.1539
     14 N          62.8511   87.6365   16.8373 N.ar    1  UNL1       -0.1577
     15 N          63.2557   86.2359   16.4843 N.ar    1  UNL1       -0.2786
     16 H          62.9738   85.4168   16.9522 H       1  UNL1        0.1886
     17 C          66.4029   93.2941   11.7957 C.1     1  UNL1        0.1029
     18 N          67.1584   94.1019   10.7825 N.1     1  UNL1       -0.1907
     19 N          64.0602   91.6268   10.9402 N.pl3   1  UNL1       -0.3145
     20 H          64.6548   91.9990   10.2495 H       1  UNL1        0.1483
     21 C          62.7383   91.0338   10.5515 C.3     1  UNL1        0.1362
     22 C          62.6526   89.5913   10.1492 C.3     1  UNL1        0.2265
     23 O          61.3841   88.8235   10.3763 O.3     1  UNL1       -0.4735
     24 C          60.9371   87.8005    9.3744 C.ar    1  UNL1        0.1417
     25 C          61.8357   86.6518    9.0234 C.ar    1  UNL1        0.0576
     26 C          61.3888   85.6289    8.0216 C.ar    1  UNL1        0.1020
     27 N          60.0432   85.7546    7.3706 N.ar    1  UNL1       -0.2421
     28 C          59.1446   86.9032    7.7216 C.ar    1  UNL1        0.1020
     29 C          59.5916   87.9262    8.7235 C.ar    1  UNL1        0.0576
@<TRIPOS>BOND
     1    10    11    1
     2    11    12   ar
     3    12    13   ar
     4    13     8    1
     5     8     1    1
     6     1     2   ar
     7     2     3   ar
     8     3     4    1
     9     3     5   ar
    10     5    17    1
    11    17    18    3
    12     5     6   ar
    13     6    19    1
    14    19    21    1
    15    21    22    1
    16    22    23    1
    17    23    24    1
    18    24    25   ar
    19    25    26   ar
    20    26    27   ar
    21    27    28   ar
    22    28    29   ar
    23     6     7   ar
    24    13    14   ar
    25    14    15   ar
    26    15    11   ar
    27     7     1   ar
    28    29    24   ar
    29     8     9    1
    30    19    20    1
    31    15    16    1
@<TRIPOS>MOLECULE
*****
 29 31 0 0 0
SMALL
GASTEIGER

@<TRIPOS>ATOM
      1 C          61.2776   88.8684   11.2558 C.ar    1  UNL1        0.1344
      2 C          60.4394   89.2072   10.0589 C.ar    1  UNL1        0.0310
      3 C          60.3288   88.2356    8.9215 C.ar    1  UNL1       -0.0067
      4 C          59.4905   88.5744    7.7246 C.3     1  UNL1        0.0319
      5 C          61.0564   86.9253    8.9810 C.ar    1  UNL1        0.0959
      6 C          61.8946   86.5864   10.1778 C.ar    1  UNL1        0.1393
      7 N          62.0052   87.5580   11.3153 N.ar    1  UNL1       -0.2154
      8 N          61.3883   89.8400   12.3933 N.pl3   1  UNL1       -0.2819
      9 H          60.5892   90.3197   12.7105 H       1  UNL1        0.1551
     10 C          66.1350   91.8543   13.5295 C.3     1  UNL1        0.0515
     11 C          64.8982   91.0065   13.5699 C.ar    1  UNL1        0.0548
     12 C          63.7204   91.1210   12.6481 C.ar    1  UNL1        0.0502
     13 C          62.7164   90.0806   13.0476 C.ar    1  UNL1        0.1539
     14 N          63.2737   89.3231   14.2162 N.ar    1  UNL1       -0.1577
     15 N          64.6222   89.8954   14.5390 N.ar    1  UNL1       -0.2786
     16 H          65.2209   89.5945   15.2603 H       1  UNL1        0.1886
     17 C          60.9457   85.9537    7.8434 C.1     1  UNL1        0.1029
     18 N          60.8350   84.9821    6.7060 N.1     1  UNL1       -0.1907
     19 N          62.6222   85.2761   10.2373 N.pl3   1  UNL1       -0.3145
     20 H          63.2195   85.0109    9.5010 H       1  UNL1        0.1483
     21 C          62.4397   84.3698   11.4185 C.3     1  UNL1        0.1362
     22 C          63.3734   83.2149   11.6291 C.3     1  UNL1        0.2265
     23 O          63.9882   82.9838   12.9777 O.3     1  UNL1       -0.4735
     24 C          63.7492   83.9629   14.0886 C.ar    1  UNL1        0.1417
     25 C          64.6720   85.1317   14.2697 C.ar    1  UNL1        0.0576
     26 C          64.4330   86.1108   15.3806 C.ar    1  UNL1        0.1020
     27 N          63.2712   85.9212   16.3105 N.ar    1  UNL1       -0.2421
     28 C          62.3486   84.7525   16.1294 C.ar    1  UNL1        0.1020
     29 C          62.5876   83.7734   15.0184 C.ar    1  UNL1        0.0576
@<TRIPOS>BOND
     1    10    11    1
     2    11    12   ar
     3    12    13   ar
     4    13     8    1
     5     8     1    1
     6     1     2   ar
     7     2     3   ar
     8     3     4    1
     9     3     5   ar
    10     5    17    1
    11    17    18    3
    12     5     6   ar
    13     6    19    1
    14    19    21    1
    15    21    22    1
    16    22    23    1
    17    23    24    1
    18    24    25   ar
    19    25    26   ar
    20    26    27   ar
    21    27    28   ar
    22    28    29   ar
    23     6     7   ar
    24    13    14   ar
    25    14    15   ar
    26    15    11   ar
    27     7     1   ar
    28    29    24   ar
    29     8     9    1
    30    19    20    1
    31    15    16    1
@<TRIPOS>MOLECULE
*****
 29 31 0 0 0
SMALL
GASTEIGER

@<TRIPOS>ATOM
      1 C          62.7249   85.0809   11.3424 C.ar    1  UNL1        0.1344
      2 C          62.8628   84.8211    9.8716 C.ar    1  UNL1        0.0310
      3 C          62.0101   85.5741    8.8939 C.ar    1  UNL1       -0.0067
      4 C          62.1479   85.3143    7.4229 C.3     1  UNL1        0.0319
      5 C          61.0197   86.5869    9.3870 C.ar    1  UNL1        0.0959
      6 C          60.8819   86.8467   10.8579 C.ar    1  UNL1        0.1393
      7 N          61.7345   86.0937   11.8356 N.ar    1  UNL1       -0.2154
      8 N          63.5776   84.3278   12.3202 N.pl3   1  UNL1       -0.2819
      9 H          64.3408   83.7950   11.9995 H       1  UNL1        0.1551
     10 C          63.2080   86.0104   17.3115 C.3     1  UNL1        0.0515
     11 C          63.0974   85.1599   16.0808 C.ar    1  UNL1        0.0548
     12 C          63.5826   85.5262   14.7095 C.ar    1  UNL1        0.0502
     13 C          63.2673   84.3865   13.7866 C.ar    1  UNL1        0.1539
     14 N          62.5873   83.3159   14.5875 N.ar    1  UNL1       -0.1577
     15 N          62.4823   83.7939   16.0054 N.ar    1  UNL1       -0.2786
     16 H          62.0803   83.2981   16.7549 H       1  UNL1        0.1886
     17 C          60.1671   87.3400    8.4092 C.1     1  UNL1        0.1029
     18 N          59.3144   88.0929    7.4315 N.1     1  UNL1       -0.1907
     19 N          59.8914   87.8595   11.3510 N.pl3   1  UNL1       -0.3145
     20 H          59.0650   87.5634   11.7966 H       1  UNL1        0.1483
     21 C          60.1602   89.3235   11.1653 C.3     1  UNL1        0.1362
     22 C          61.5308   89.8736   11.4274 C.3     1  UNL1        0.2265
     23 O          62.2691   89.4853   12.6742 O.3     1  UNL1       -0.4735
     24 C          63.3500   90.3745   13.2134 C.ar    1  UNL1        0.1417
     25 C          64.1037   91.2842   12.2889 C.ar    1  UNL1        0.0576
     26 C          65.1846   92.1734   12.8281 C.ar    1  UNL1        0.1020
     27 N          65.5120   92.1530   14.2919 N.ar    1  UNL1       -0.2421
     28 C          64.7584   91.2434   15.2163 C.ar    1  UNL1        0.1020
     29 C          63.6774   90.3541   14.6771 C.ar    1  UNL1        0.0576
@<TRIPOS>BOND
     1    10    11    1
     2    11    12   ar
     3    12    13   ar
     4    13     8    1
     5     8     1    1
     6     1     2   ar
     7     2     3   ar
     8     3     4    1
     9     3     5   ar
    10     5    17    1
    11    17    18    3
    12     5     6   ar
    13     6    19    1
    14    19    21    1
    15    21    22    1
    16    22    23    1
    17    23    24    1
    18    24    25   ar
    19    25    26   ar
    20    26    27   ar
    21    27    28   ar
    22    28    29   ar
    23     6     7   ar
    24    13    14   ar
    25    14    15   ar
    26    15    11   ar
    27     7     1   ar
    28    29    24   ar
    29     8     9    1
    30    19    20    1
    31    15    16    1
@<TRIPOS>MOLECULE
*****
 29 31 0 0 0
SMALL
GASTEIGER

@<TRIPOS>ATOM
      1 C          63.9017   90.2124   14.5991 C.ar    1  UNL1        0.1344
      2 C          65.1871   90.9621   14.7882 C.ar    1  UNL1        0.0310
      3 C          65.7304   91.8112   13.6775 C.ar    1  UNL1       -0.0067
      4 C          67.0159   92.5609   13.8666 C.3     1  UNL1        0.0319
      5 C          64.9884   91.9107   12.3777 C.ar    1  UNL1        0.0959
      6 C          63.7030   91.1611   12.1886 C.ar    1  UNL1        0.1393
      7 N          63.1597   90.3120   13.2993 N.ar    1  UNL1       -0.2154
      8 N          63.3583   89.3632   15.7098 N.pl3   1  UNL1       -0.2819
      9 H          62.8407   89.7771   16.4378 H       1  UNL1        0.1551
     10 C          65.0735   84.5559   14.3577 C.3     1  UNL1        0.0515
     11 C          64.3919   85.6738   15.0898 C.ar    1  UNL1        0.0548
     12 C          64.4126   87.1229   14.7029 C.ar    1  UNL1        0.0502
     13 C          63.6036   87.8835   15.7113 C.ar    1  UNL1        0.1539
     14 N          63.0828   86.9044   16.7214 N.ar    1  UNL1       -0.1577
     15 N          63.5700   85.5388   16.3374 N.ar    1  UNL1       -0.2786
     16 H          63.3832   84.7009   16.8195 H       1  UNL1        0.1886
     17 C          65.5318   92.7600   11.2670 C.1     1  UNL1        0.1029
     18 N          66.0752   93.6091   10.1563 N.1     1  UNL1       -0.1907
     19 N          62.9610   91.2607   10.8888 N.pl3   1  UNL1       -0.3145
     20 H          62.6198   92.1318   10.5822 H       1  UNL1        0.1483
     21 C          62.7389   90.0330   10.0561 C.3     1  UNL1        0.1362
     22 C          61.6213   89.0907   10.3925 C.3     1  UNL1        0.2265
     23 O          61.3705   87.8873    9.5327 O.3     1  UNL1       -0.4735
     24 C          62.0076   86.5737    9.8770 C.ar    1  UNL1        0.1417
     25 C          61.9349   86.0499   11.2807 C.ar    1  UNL1        0.0576
     26 C          62.5719   84.7363   11.6250 C.ar    1  UNL1        0.1020
     27 N          63.2816   83.9464   10.5655 N.ar    1  UNL1       -0.2421
     28 C          63.3543   84.4701    9.1619 C.ar    1  UNL1        0.1020
     29 C          62.7173   85.7838    8.8176 C.ar    1  UNL1        0.0576
@<TRIPOS>BOND
     1    10    11    1
     2    11    12   ar
     3    12    13   ar
     4    13     8    1
     5     8     1    1
     6     1     2   ar
     7     2     3   ar
     8     3     4    1
     9     3     5   ar
    10     5    17    1
    11    17    18    3
    12     5     6   ar
    13     6    19    1
    14    19    21    1
    15    21    22    1
    16    22    23    1
    17    23    24    1
    18    24    25   ar
    19    25    26   ar
    20    26    27   ar
    21    27    28   ar
    22    28    29   ar
    23     6     7   ar
    24    13    14   ar
    25    14    15   ar
    26    15    11   ar
    27     7     1   ar
    28    29    24   ar
    29     8     9    1
    30    19    20    1
    31    15    16    1
