@<TRIPOS>MOLECULE
*****
 30 33 0 0 0
SMALL
GASTEIGER

@<TRIPOS>ATOM
      1 N          71.6670   78.6810   11.5911 N.am    1  UNL1       -0.2681
      2 C          72.5489   77.4707   11.6777 C.2     1  UNL1        0.3078
      3 O          73.6319   77.2578   10.6619 O.2     1  UNL1       -0.2522
      4 N          72.3479   76.4735   12.7799 N.am    1  UNL1       -0.2605
      5 C          73.2298   75.2632   12.8665 C.3     1  UNL1        0.1164
      6 C          73.0288   74.2660   13.9687 C.3     1  UNL1        0.1138
      7 N          71.9457   74.4790   14.9845 N.pl3   1  UNL1       -0.2884
      8 C          71.0638   75.6892   14.8980 C.3     1  UNL1        0.1138
      9 C          71.2649   76.6864   13.7957 C.3     1  UNL1        0.1164
     10 H          70.9562   78.8208   12.2578 H       1  UNL1        0.1564
     11 C          71.7447   73.4817   16.0868 C.ar    1  UNL1        0.1544
     12 N          71.6450   73.9463   17.5096 N.ar    1  UNL1       -0.1974
     13 C          71.4440   72.9491   18.6118 C.ar    1  UNL1        0.2154
     14 N          71.3443   73.4137   20.0346 N.pl3   1  UNL1       -0.3274
     15 N          71.3426   71.4871   18.2914 N.ar    1  UNL1       -0.2057
     16 C          71.4423   71.0226   16.8686 C.ar    1  UNL1        0.1353
     17 S          71.3793   69.6566   16.2521 S.2     1  UNL1       -0.0453
     18 C          71.5413   69.8096   14.7688 C.ar    1  UNL1        0.1360
     19 N          71.7045   71.2702   14.4686 N.ar    1  UNL1       -0.2319
     20 C          71.6433   72.0198   15.7664 C.ar    1  UNL1        0.1372
     21 H          71.4109   74.3731   20.2450 H       1  UNL1        0.1452
     22 H          71.2124   72.7591   20.7581 H       1  UNL1        0.1452
     23 C          72.2701   81.6728    8.2843 C.ar    1  UNL1        0.1388
     24 C          71.9682   80.2410    7.9545 C.ar    1  UNL1        0.0382
     25 C          71.7671   79.2437    9.0567 C.ar    1  UNL1        0.0178
     26 C          71.8680   79.6782   10.4889 C.ar    1  UNL1        0.0518
     27 C          72.1700   81.1101   10.8187 C.ar    1  UNL1        0.0178
     28 C          72.3710   82.1073    9.7164 C.ar    1  UNL1        0.0382
     29 C          71.8938   82.4113    5.8220 C.3     1  UNL1        0.2525
     30 O          72.4712   82.6700    7.1820 O.3     1  UNL1       -0.4714
@<TRIPOS>BOND
     1    29    30    1
     2    30    23    1
     3    23    24   ar
     4    24    25   ar
     5    25    26   ar
     6    26     1    1
     7     1     2   am
     8     2     3    2
     9     2     4   am
    10     4     5    1
    11     5     6    1
    12     6     7    1
    13     7    11    1
    14    11    12   ar
    15    12    13   ar
    16    13    14    1
    17    13    15   ar
    18    15    16   ar
    19    16    17   ar
    20    17    18   ar
    21    18    19   ar
    22    19    20   ar
    23     7     8    1
    24     8     9    1
    25    26    27   ar
    26    27    28   ar
    27    28    23   ar
    28     9     4    1
    29    20    11   ar
    30    20    16   ar
    31     1    10    1
    32    14    21    1
    33    14    22    1
@<TRIPOS>MOLECULE
*****
 30 33 0 0 0
SMALL
GASTEIGER

@<TRIPOS>ATOM
      1 N          72.6262   77.8288   11.1323 N.am    1  UNL1       -0.2681
      2 C          71.7731   77.7623   12.3644 C.2     1  UNL1        0.3078
      3 O          71.0083   78.9721   12.8133 O.2     1  UNL1       -0.2522
      4 N          71.6850   76.4861   13.1476 N.am    1  UNL1       -0.2605
      5 C          70.8319   76.4196   14.3797 C.3     1  UNL1        0.1164
      6 C          70.7437   75.1435   15.1629 C.3     1  UNL1        0.1138
      7 N          71.5086   73.9336   14.7140 N.pl3   1  UNL1       -0.2884
      8 C          72.3616   74.0000   13.4820 C.3     1  UNL1        0.1138
      9 C          72.4498   75.2763   12.6988 C.3     1  UNL1        0.1164
     10 H          73.1282   77.0348   10.8377 H       1  UNL1        0.1564
     11 C          71.4204   72.6574   15.4973 C.ar    1  UNL1        0.1544
     12 N          71.5470   71.3371   14.7967 N.ar    1  UNL1       -0.1974
     13 C          71.4588   70.0610   15.5798 C.ar    1  UNL1        0.2154
     14 N          71.5855   68.7406   14.8791 N.pl3   1  UNL1       -0.3274
     15 N          71.2439   70.1049   17.0638 N.ar    1  UNL1       -0.2057
     16 C          71.1173   71.4251   17.7644 C.ar    1  UNL1        0.1353
     17 S          70.9025   71.7798   19.2059 S.2     1  UNL1       -0.0453
     18 C          70.8579   73.2753   19.3136 C.ar    1  UNL1        0.1360
     19 N          71.0452   73.8448   17.9386 N.ar    1  UNL1       -0.2319
     20 C          71.2055   72.7014   16.9811 C.ar    1  UNL1        0.1372
     21 H          71.7266   68.7118   13.9052 H       1  UNL1        0.1452
     22 H          71.5276   67.9030   15.3932 H       1  UNL1        0.1452
     23 C          72.8907   81.6575    8.7827 C.ar    1  UNL1        0.1388
     24 C          73.5086   81.5704   10.1467 C.ar    1  UNL1        0.0382
     25 C          73.4205   80.2942   10.9300 C.ar    1  UNL1        0.0178
     26 C          72.7144   79.1050   10.3492 C.ar    1  UNL1        0.0518
     27 C          72.0964   79.1921    8.9850 C.ar    1  UNL1        0.0178
     28 C          72.1846   80.4684    8.2019 C.ar    1  UNL1        0.0382
     29 C          71.8773   83.3112    7.0541 C.3     1  UNL1        0.2525
     30 O          72.9789   82.9338    7.9995 O.3     1  UNL1       -0.4714
@<TRIPOS>BOND
     1    29    30    1
     2    30    23    1
     3    23    24   ar
     4    24    25   ar
     5    25    26   ar
     6    26     1    1
     7     1     2   am
     8     2     3    2
     9     2     4   am
    10     4     5    1
    11     5     6    1
    12     6     7    1
    13     7    11    1
    14    11    12   ar
    15    12    13   ar
    16    13    14    1
    17    13    15   ar
    18    15    16   ar
    19    16    17   ar
    20    17    18   ar
    21    18    19   ar
    22    19    20   ar
    23     7     8    1
    24     8     9    1
    25    26    27   ar
    26    27    28   ar
    27    28    23   ar
    28     9     4    1
    29    20    11   ar
    30    20    16   ar
    31     1    10    1
    32    14    21    1
    33    14    22    1
@<TRIPOS>MOLECULE
*****
 30 33 0 0 0
SMALL
GASTEIGER

@<TRIPOS>ATOM
      1 N          60.2569   88.4811    7.7859 N.am    1  UNL1       -0.2681
      2 C          61.0504   88.9512    8.9689 C.2     1  UNL1        0.3078
      3 O          61.3787   90.4069    9.1211 O.2     1  UNL1       -0.2522
      4 N          61.5154   87.9658    9.9996 N.am    1  UNL1       -0.2605
      5 C          62.3088   88.4359   11.1827 C.3     1  UNL1        0.1164
      6 C          62.7738   87.4504   12.2134 C.3     1  UNL1        0.1138
      7 N          62.4455   85.9947   12.0612 N.pl3   1  UNL1       -0.2884
      8 C          61.6521   85.5245   10.8782 C.3     1  UNL1        0.1138
      9 C          61.1871   86.5101    9.8474 C.3     1  UNL1        0.1164
     10 H          60.0414   87.5257    7.6860 H       1  UNL1        0.1564
     11 C          62.9105   85.0092   13.0920 C.ar    1  UNL1        0.1544
     12 N          63.3035   85.4835   14.4596 N.ar    1  UNL1       -0.1974
     13 C          63.7685   84.4981   15.4904 C.ar    1  UNL1        0.2154
     14 N          64.1615   84.9725   16.8581 N.pl3   1  UNL1       -0.3274
     15 N          63.8406   83.0381   15.1535 N.ar    1  UNL1       -0.2057
     16 C          63.4477   82.5638   13.7859 C.ar    1  UNL1        0.1353
     17 S          63.4153   81.1971   13.1685 S.2     1  UNL1       -0.0453
     18 C          62.9302   81.3380   11.7561 C.ar    1  UNL1        0.1360
     19 N          62.6628   82.7917   11.5006 N.ar    1  UNL1       -0.2319
     20 C          62.9826   83.5493   12.7551 C.ar    1  UNL1        0.1372
     21 H          64.1141   85.9307   17.0792 H       1  UNL1        0.1452
     22 H          64.4667   84.3257   17.5347 H       1  UNL1        0.1452
     23 C          58.8618   91.4377    4.6936 C.ar    1  UNL1        0.1388
     24 C          60.3264   91.1582    4.8571 C.ar    1  UNL1        0.0382
     25 C          60.7915   90.1727    5.8878 C.ar    1  UNL1        0.0178
     26 C          59.7919   89.4666    6.7552 C.ar    1  UNL1        0.0518
     27 C          58.3272   89.7461    6.5917 C.ar    1  UNL1        0.0178
     28 C          57.8622   90.7316    5.5609 C.ar    1  UNL1        0.0382
     29 C          59.3550   92.9350    2.6285 C.3     1  UNL1        0.2525
     30 O          58.3968   92.4232    3.6629 O.3     1  UNL1       -0.4714
@<TRIPOS>BOND
     1    29    30    1
     2    30    23    1
     3    23    24   ar
     4    24    25   ar
     5    25    26   ar
     6    26     1    1
     7     1     2   am
     8     2     3    2
     9     2     4   am
    10     4     5    1
    11     5     6    1
    12     6     7    1
    13     7    11    1
    14    11    12   ar
    15    12    13   ar
    16    13    14    1
    17    13    15   ar
    18    15    16   ar
    19    16    17   ar
    20    17    18   ar
    21    18    19   ar
    22    19    20   ar
    23     7     8    1
    24     8     9    1
    25    26    27   ar
    26    27    28   ar
    27    28    23   ar
    28     9     4    1
    29    20    11   ar
    30    20    16   ar
    31     1    10    1
    32    14    21    1
    33    14    22    1
@<TRIPOS>MOLECULE
*****
 30 33 0 0 0
SMALL
GASTEIGER

@<TRIPOS>ATOM
      1 N          63.4212   85.5548   13.8411 N.am    1  UNL1       -0.2681
      2 C          62.9830   86.6021   12.8607 C.2     1  UNL1        0.3078
      3 O          61.9393   86.2778   11.8333 O.2     1  UNL1       -0.2522
      4 N          63.5885   87.9736   12.9077 N.am    1  UNL1       -0.2605
      5 C          63.1503   89.0210   11.9272 C.3     1  UNL1        0.1164
      6 C          63.7558   90.3924   11.9742 C.3     1  UNL1        0.1138
      7 N          64.7995   90.7167   13.0017 N.pl3   1  UNL1       -0.2884
      8 C          65.2377   89.6695   13.9821 C.3     1  UNL1        0.1138
      9 C          64.6321   88.2979   13.9350 C.3     1  UNL1        0.1164
     10 H          64.1062   85.7676   14.5155 H       1  UNL1        0.1564
     11 C          65.4050   92.0883   13.0486 C.ar    1  UNL1        0.1544
     12 N          65.1321   93.0668   11.9450 N.ar    1  UNL1       -0.1974
     13 C          65.7375   94.4383   11.9919 C.ar    1  UNL1        0.2154
     14 N          65.4645   95.4169   10.8882 N.pl3   1  UNL1       -0.3274
     15 N          66.6160   94.8314   13.1425 N.ar    1  UNL1       -0.2057
     16 C          66.8889   93.8529   14.2462 C.ar    1  UNL1        0.1353
     17 S          67.7083   93.9553   15.4984 S.2     1  UNL1       -0.0453
     18 C          67.6092   92.6470   16.2254 C.ar    1  UNL1        0.1360
     19 N          66.7286   91.7361   15.4225 N.ar    1  UNL1       -0.2319
     20 C          66.2834   92.4814   14.1992 C.ar    1  UNL1        0.1372
     21 H          64.8880   95.1589   10.1331 H       1  UNL1        0.1452
     22 H          65.8619   96.3171   10.9191 H       1  UNL1        0.1452
     23 C          61.6047   81.4402   13.7002 C.ar    1  UNL1        0.1388
     24 C          62.2323   82.0255   12.4700 C.ar    1  UNL1        0.0382
     25 C          62.8378   83.3970   12.5169 C.ar    1  UNL1        0.0178
     26 C          62.8157   84.1833   13.7942 C.ar    1  UNL1        0.0518
     27 C          62.1880   83.5980   15.0245 C.ar    1  UNL1        0.0178
     28 C          61.5825   82.2264   14.9774 C.ar    1  UNL1        0.0382
     29 C          59.6301   79.8333   14.2193 C.3     1  UNL1        0.2525
     30 O          60.9992   80.0686   13.6532 O.3     1  UNL1       -0.4714
@<TRIPOS>BOND
     1    29    30    1
     2    30    23    1
     3    23    24   ar
     4    24    25   ar
     5    25    26   ar
     6    26     1    1
     7     1     2   am
     8     2     3    2
     9     2     4   am
    10     4     5    1
    11     5     6    1
    12     6     7    1
    13     7    11    1
    14    11    12   ar
    15    12    13   ar
    16    13    14    1
    17    13    15   ar
    18    15    16   ar
    19    16    17   ar
    20    17    18   ar
    21    18    19   ar
    22    19    20   ar
    23     7     8    1
    24     8     9    1
    25    26    27   ar
    26    27    28   ar
    27    28    23   ar
    28     9     4    1
    29    20    11   ar
    30    20    16   ar
    31     1    10    1
    32    14    21    1
    33    14    22    1
@<TRIPOS>MOLECULE
*****
 30 33 0 0 0
SMALL
GASTEIGER

@<TRIPOS>ATOM
      1 N          63.4360   85.2172   13.9874 N.am    1  UNL1       -0.2681
      2 C          63.0325   86.3209   13.0551 C.2     1  UNL1        0.3078
      3 O          62.0070   86.0660   11.9906 O.2     1  UNL1       -0.2522
      4 N          63.6546   87.6794   13.1873 N.am    1  UNL1       -0.2605
      5 C          63.2511   88.7831   12.2550 C.3     1  UNL1        0.1164
      6 C          63.8732   90.1415   12.3872 C.3     1  UNL1        0.1138
      7 N          64.8988   90.3964   13.4518 N.pl3   1  UNL1       -0.2884
      8 C          65.3023   89.2928   14.3841 C.3     1  UNL1        0.1138
      9 C          64.6802   87.9343   14.2518 C.3     1  UNL1        0.1164
     10 H          64.1091   85.3845   14.6861 H       1  UNL1        0.1564
     11 C          65.5209   91.7549   13.5840 C.ar    1  UNL1        0.1544
     12 N          66.1413   92.1724   14.8842 N.ar    1  UNL1       -0.1974
     13 C          66.7634   93.5308   15.0165 C.ar    1  UNL1        0.2154
     14 N          67.3839   93.9483   16.3168 N.pl3   1  UNL1       -0.3274
     15 N          66.7650   94.4719   13.8484 N.ar    1  UNL1       -0.2057
     16 C          66.1445   94.0545   12.5481 C.ar    1  UNL1        0.1353
     17 S          65.9970   94.7618   11.2336 S.2     1  UNL1       -0.0453
     18 C          65.2837   93.8405   10.2890 C.ar    1  UNL1        0.1360
     19 N          64.9904   92.5637   11.0197 N.ar    1  UNL1       -0.2319
     20 C          65.5225   92.6960   12.4159 C.ar    1  UNL1        0.1372
     21 H          67.3828   93.3306   17.0835 H       1  UNL1        0.1452
     22 H          67.7921   94.8399   16.4036 H       1  UNL1        0.1452
     23 C          61.5698   81.1418   13.5908 C.ar    1  UNL1        0.1388
     24 C          62.3819   81.7077   12.4638 C.ar    1  UNL1        0.0382
     25 C          63.0040   83.0661   12.5959 C.ar    1  UNL1        0.0178
     26 C          62.8140   83.8588   13.8552 C.ar    1  UNL1        0.0518
     27 C          62.0018   83.2929   14.9822 C.ar    1  UNL1        0.0178
     28 C          61.3797   81.9343   14.8500 C.ar    1  UNL1        0.0382
     29 C          59.6462   79.4846   14.1418 C.3     1  UNL1        0.2525
     30 O          60.9477   79.7833   13.4585 O.3     1  UNL1       -0.4714
@<TRIPOS>BOND
     1    29    30    1
     2    30    23    1
     3    23    24   ar
     4    24    25   ar
     5    25    26   ar
     6    26     1    1
     7     1     2   am
     8     2     3    2
     9     2     4   am
    10     4     5    1
    11     5     6    1
    12     6     7    1
    13     7    11    1
    14    11    12   ar
    15    12    13   ar
    16    13    14    1
    17    13    15   ar
    18    15    16   ar
    19    16    17   ar
    20    17    18   ar
    21    18    19   ar
    22    19    20   ar
    23     7     8    1
    24     8     9    1
    25    26    27   ar
    26    27    28   ar
    27    28    23   ar
    28     9     4    1
    29    20    11   ar
    30    20    16   ar
    31     1    10    1
    32    14    21    1
    33    14    22    1
@<TRIPOS>MOLECULE
*****
 30 33 0 0 0
SMALL
GASTEIGER

@<TRIPOS>ATOM
      1 N          63.7569   84.2418   13.4398 N.am    1  UNL1       -0.2681
      2 C          63.3997   85.5056   12.7149 C.2     1  UNL1        0.3078
      3 O          62.7325   85.4376   11.3731 O.2     1  UNL1       -0.2522
      4 N          63.7098   86.8372   13.3316 N.am    1  UNL1       -0.2605
      5 C          63.3526   88.1010   12.6067 C.3     1  UNL1        0.1164
      6 C          63.6627   89.4326   13.2235 C.3     1  UNL1        0.1138
      7 N          64.3299   89.5007   14.5653 N.pl3   1  UNL1       -0.2884
      8 C          64.6870   88.2370   15.2902 C.3     1  UNL1        0.1138
      9 C          64.3769   86.9053   14.6733 C.3     1  UNL1        0.1164
     10 H          64.1948   84.2865   14.3204 H       1  UNL1        0.1564
     11 C          64.6399   90.8324   15.1821 C.ar    1  UNL1        0.1544
     12 N          63.6173   91.5186   16.0384 N.ar    1  UNL1       -0.1974
     13 C          63.9273   92.8503   16.6551 C.ar    1  UNL1        0.2154
     14 N          62.9046   93.5366   17.5115 N.pl3   1  UNL1       -0.3274
     15 N          65.2600   93.4958   16.4156 N.ar    1  UNL1       -0.2057
     16 C          66.2826   92.8096   15.5593 C.ar    1  UNL1        0.1353
     17 S          67.6717   93.1987   15.1482 S.2     1  UNL1       -0.0453
     18 C          68.2202   92.1075   14.2774 C.ar    1  UNL1        0.1360
     19 N          67.1701   91.0439   14.1502 N.ar    1  UNL1       -0.2319
     20 C          65.9726   91.4778   14.9425 C.ar    1  UNL1        0.1372
     21 H          62.0299   93.1129   17.6687 H       1  UNL1        0.1452
     22 H          63.1081   94.4106   17.9163 H       1  UNL1        0.1452
     23 C          62.8267   80.2468   11.5894 C.ar    1  UNL1        0.1388
     24 C          62.4827   80.5062   13.0261 C.ar    1  UNL1        0.0382
     25 C          62.7927   81.8378   13.6430 C.ar    1  UNL1        0.0178
     26 C          63.4468   82.9102   12.8230 C.ar    1  UNL1        0.0518
     27 C          63.7908   82.6508   11.3861 C.ar    1  UNL1        0.0178
     28 C          63.4808   81.3191   10.7694 C.ar    1  UNL1        0.0382
     29 C          62.8731   78.6510    9.5397 C.3     1  UNL1        0.2525
     30 O          62.5166   78.9151   10.9726 O.3     1  UNL1       -0.4714
@<TRIPOS>BOND
     1    29    30    1
     2    30    23    1
     3    23    24   ar
     4    24    25   ar
     5    25    26   ar
     6    26     1    1
     7     1     2   am
     8     2     3    2
     9     2     4   am
    10     4     5    1
    11     5     6    1
    12     6     7    1
    13     7    11    1
    14    11    12   ar
    15    12    13   ar
    16    13    14    1
    17    13    15   ar
    18    15    16   ar
    19    16    17   ar
    20    17    18   ar
    21    18    19   ar
    22    19    20   ar
    23     7     8    1
    24     8     9    1
    25    26    27   ar
    26    27    28   ar
    27    28    23   ar
    28     9     4    1
    29    20    11   ar
    30    20    16   ar
    31     1    10    1
    32    14    21    1
    33    14    22    1
@<TRIPOS>MOLECULE
*****
 30 33 0 0 0
SMALL
GASTEIGER

@<TRIPOS>ATOM
      1 N          65.5431   92.2730   11.3294 N.am    1  UNL1       -0.2681
      2 C          65.4513   92.4326   12.8181 C.2     1  UNL1        0.3078
      3 O          65.8624   93.7241   13.4606 O.2     1  UNL1       -0.2522
      4 N          64.9483   91.3007   13.6641 N.am    1  UNL1       -0.2605
      5 C          64.8565   91.4603   15.1528 C.3     1  UNL1        0.1164
      6 C          64.3536   90.3285   15.9989 C.3     1  UNL1        0.1138
      7 N          63.9424   89.0369   15.3563 N.pl3   1  UNL1       -0.2884
      8 C          64.0342   88.8772   13.8676 C.3     1  UNL1        0.1138
      9 C          64.5372   90.0092   13.0216 C.3     1  UNL1        0.1164
     10 H          65.2733   91.4253   10.9076 H       1  UNL1        0.1564
     11 C          63.4395   87.9050   16.2024 C.ar    1  UNL1        0.1544
     12 N          63.1303   88.1324   17.6524 N.ar    1  UNL1       -0.1974
     13 C          62.6274   87.0006   18.4985 C.ar    1  UNL1        0.2154
     14 N          62.3181   87.2281   19.9486 N.pl3   1  UNL1       -0.3274
     15 N          62.4336   85.6412   17.8946 N.ar    1  UNL1       -0.2057
     16 C          62.7428   85.4138   16.4446 C.ar    1  UNL1        0.1353
     17 S          62.6508   84.1928   15.5782 S.2     1  UNL1       -0.0453
     18 C          63.0969   84.5700   14.1967 C.ar    1  UNL1        0.1360
     19 N          63.4646   86.0242   14.2092 N.ar    1  UNL1       -0.2319
     20 C          63.2458   86.5457   15.5985 C.ar    1  UNL1        0.1372
     21 H          62.4453   88.1203   20.3450 H       1  UNL1        0.1452
     22 H          61.9880   86.4852   20.5040 H       1  UNL1        0.1452
     23 C          67.0519   95.6686    8.7911 C.ar    1  UNL1        0.1388
     24 C          67.8179   94.3805    8.8529 C.ar    1  UNL1        0.0382
     25 C          67.3151   93.2486    9.6989 C.ar    1  UNL1        0.0178
     26 C          66.0460   93.4048   10.4833 C.ar    1  UNL1        0.0518
     27 C          65.2799   94.6930   10.4216 C.ar    1  UNL1        0.0178
     28 C          65.7829   95.8249    9.5755 C.ar    1  UNL1        0.0382
     29 C          67.2122   96.8559    6.4858 C.3     1  UNL1        0.2525
     30 O          67.5549   96.8005    7.9450 O.3     1  UNL1       -0.4714
@<TRIPOS>BOND
     1    29    30    1
     2    30    23    1
     3    23    24   ar
     4    24    25   ar
     5    25    26   ar
     6    26     1    1
     7     1     2   am
     8     2     3    2
     9     2     4   am
    10     4     5    1
    11     5     6    1
    12     6     7    1
    13     7    11    1
    14    11    12   ar
    15    12    13   ar
    16    13    14    1
    17    13    15   ar
    18    15    16   ar
    19    16    17   ar
    20    17    18   ar
    21    18    19   ar
    22    19    20   ar
    23     7     8    1
    24     8     9    1
    25    26    27   ar
    26    27    28   ar
    27    28    23   ar
    28     9     4    1
    29    20    11   ar
    30    20    16   ar
    31     1    10    1
    32    14    21    1
    33    14    22    1
@<TRIPOS>MOLECULE
*****
 30 33 0 0 0
SMALL
GASTEIGER

@<TRIPOS>ATOM
      1 N          60.2340   88.3638    7.4613 N.am    1  UNL1       -0.2681
      2 C          60.9277   88.7091    8.7457 C.2     1  UNL1        0.3078
      3 O          61.2036   90.1434    9.0870 O.2     1  UNL1       -0.2522
      4 N          61.3455   87.6201    9.6887 N.am    1  UNL1       -0.2605
      5 C          62.0392   87.9653   10.9731 C.3     1  UNL1        0.1164
      6 C          62.4570   86.8763   11.9161 C.3     1  UNL1        0.1138
      7 N          62.1811   85.4419   11.5748 N.pl3   1  UNL1       -0.2884
      8 C          61.4874   85.0965   10.2905 C.3     1  UNL1        0.1138
      9 C          61.0696   86.1857    9.3475 C.3     1  UNL1        0.1164
     10 H          60.0529   87.4224    7.2373 H       1  UNL1        0.1564
     11 C          62.5990   84.3528   12.5179 C.ar    1  UNL1        0.1544
     12 N          62.4320   82.9150   12.1245 N.ar    1  UNL1       -0.1974
     13 C          62.8497   81.8260   13.0675 C.ar    1  UNL1        0.2154
     14 N          62.6827   80.3881   12.6740 N.pl3   1  UNL1       -0.3274
     15 N          63.4346   82.1747   14.4041 N.ar    1  UNL1       -0.2057
     16 C          63.6017   83.6125   14.7975 C.ar    1  UNL1        0.1353
     17 S          64.1436   84.2569   16.0389 S.2     1  UNL1       -0.0453
     18 C          64.0608   85.7442   15.8630 C.ar    1  UNL1        0.1360
     19 N          63.4676   86.0191   14.5130 N.ar    1  UNL1       -0.2319
     20 C          63.1838   84.7015   13.8544 C.ar    1  UNL1        0.1372
     21 H          62.2988   80.1592   11.7967 H       1  UNL1        0.1452
     22 H          62.9569   79.6733   13.2929 H       1  UNL1        0.1452
     23 C          58.9806   91.6310    4.6322 C.ar    1  UNL1        0.1388
     24 C          57.9514   90.9200    5.4601 C.ar    1  UNL1        0.0382
     25 C          58.3692   89.8310    6.4031 C.ar    1  UNL1        0.0178
     26 C          59.8162   89.4528    6.5183 C.ar    1  UNL1        0.0518
     27 C          60.8454   90.1638    5.6904 C.ar    1  UNL1        0.0178
     28 C          60.4275   91.2529    4.7473 C.ar    1  UNL1        0.0382
     29 C          59.4400   93.0845    2.5283 C.3     1  UNL1        0.2525
     30 O          58.5627   92.7201    3.6891 O.3     1  UNL1       -0.4714
@<TRIPOS>BOND
     1    29    30    1
     2    30    23    1
     3    23    24   ar
     4    24    25   ar
     5    25    26   ar
     6    26     1    1
     7     1     2   am
     8     2     3    2
     9     2     4   am
    10     4     5    1
    11     5     6    1
    12     6     7    1
    13     7    11    1
    14    11    12   ar
    15    12    13   ar
    16    13    14    1
    17    13    15   ar
    18    15    16   ar
    19    16    17   ar
    20    17    18   ar
    21    18    19   ar
    22    19    20   ar
    23     7     8    1
    24     8     9    1
    25    26    27   ar
    26    27    28   ar
    27    28    23   ar
    28     9     4    1
    29    20    11   ar
    30    20    16   ar
    31     1    10    1
    32    14    21    1
    33    14    22    1
@<TRIPOS>MOLECULE
*****
 30 33 0 0 0
SMALL
GASTEIGER

@<TRIPOS>ATOM
      1 N          44.6637   79.4109   15.6504 N.am    1  UNL1       -0.2681
      2 C          44.2519   80.6290   14.8779 C.2     1  UNL1        0.3078
      3 O          43.9432   81.9066   15.6008 O.2     1  UNL1       -0.2522
      4 N          44.1487   80.5695   13.3828 N.am    1  UNL1       -0.2605
      5 C          43.7369   81.7876   12.6102 C.3     1  UNL1        0.1164
      6 C          43.6337   81.7281   11.1151 C.3     1  UNL1        0.1138
      7 N          43.9424   80.4505   10.3922 N.pl3   1  UNL1       -0.2884
      8 C          44.3543   79.2324   11.1646 C.3     1  UNL1        0.1138
      9 C          44.4574   79.2920   12.6599 C.3     1  UNL1        0.1164
     10 H          44.8663   78.5724   15.1761 H       1  UNL1        0.1564
     11 C          43.8393   80.3910    8.8969 C.ar    1  UNL1        0.1544
     12 N          43.7964   79.0633    8.2003 N.ar    1  UNL1       -0.1974
     13 C          43.6932   79.0038    6.7051 C.ar    1  UNL1        0.2154
     14 N          43.6503   77.6759    6.0085 N.pl3   1  UNL1       -0.3274
     15 N          43.6330   80.2720    5.9064 N.ar    1  UNL1       -0.2057
     16 C          43.6759   81.5998    6.6030 C.ar    1  UNL1        0.1353
     17 S          43.6345   83.0068    6.0848 S.2     1  UNL1       -0.0453
     18 C          43.7121   83.9359    7.2599 C.ar    1  UNL1        0.1360
     19 N          43.8014   83.1031    8.5042 N.ar    1  UNL1       -0.2319
     20 C          43.7791   81.6593    8.0982 C.ar    1  UNL1        0.1372
     21 H          43.6899   76.8435    6.5327 H       1  UNL1        0.1452
     22 H          43.5826   77.6369    5.0271 H       1  UNL1        0.1452
     23 C          44.9731   79.5895   20.1362 C.ar    1  UNL1        0.1388
     24 C          43.9003   78.7635   19.4907 C.ar    1  UNL1        0.0382
     25 C          43.7971   78.7039   17.9955 C.ar    1  UNL1        0.0178
     26 C          44.7668   79.4704   17.1456 C.ar    1  UNL1        0.0518
     27 C          45.8398   80.2965   17.7912 C.ar    1  UNL1        0.0178
     28 C          45.9429   80.3559   19.2865 C.ar    1  UNL1        0.0382
     29 C          43.9652   80.2554   22.4363 C.3     1  UNL1        0.2525
     30 O          45.0762   79.6489   21.6315 O.3     1  UNL1       -0.4714
@<TRIPOS>BOND
     1    29    30    1
     2    30    23    1
     3    23    24   ar
     4    24    25   ar
     5    25    26   ar
     6    26     1    1
     7     1     2   am
     8     2     3    2
     9     2     4   am
    10     4     5    1
    11     5     6    1
    12     6     7    1
    13     7    11    1
    14    11    12   ar
    15    12    13   ar
    16    13    14    1
    17    13    15   ar
    18    15    16   ar
    19    16    17   ar
    20    17    18   ar
    21    18    19   ar
    22    19    20   ar
    23     7     8    1
    24     8     9    1
    25    26    27   ar
    26    27    28   ar
    27    28    23   ar
    28     9     4    1
    29    20    11   ar
    30    20    16   ar
    31     1    10    1
    32    14    21    1
    33    14    22    1
