@<TRIPOS>MOLECULE
*****
 37 41 0 0 0
SMALL
GASTEIGER

@<TRIPOS>ATOM
      1 C          63.3925   90.8469   11.6143 C.3     1  UNL1        0.0799
      2 C          63.6868   91.7392   10.4452 C.3     1  UNL1        0.0178
      3 C          64.8545   92.6795   10.4946 C.3     1  UNL1        0.0029
      4 C          65.7278   92.7273   11.7133 C.3     1  UNL1        0.0178
      5 C          65.4335   91.8350   12.8824 C.3     1  UNL1        0.0795
      6 N          64.2658   90.8947   12.8330 N.3     1  UNL1       -0.1583
      7 C          62.2248   89.9066   11.5649 C.3     1  UNL1        0.0237
      8 C          61.1008   90.8930   11.4484 C.3     1  UNL1        0.0019
      9 C          60.8076   89.4223   11.4809 C.3     1  UNL1        0.0019
     10 C          62.9432   88.5936   11.6642 C.3     1  UNL1        0.0866
     11 N          62.6684   83.2216   12.2260 N.3     1  UNL1       -0.2699
     12 C          62.2767   83.5120   10.8075 C.3     1  UNL1        0.0939
     13 C          62.2475   84.9278   10.3125 C.3     1  UNL1        0.1107
     14 N          62.6100   86.0528   11.2359 N.am    1  UNL1       -0.2767
     15 C          62.5808   87.4685   10.7408 C.2     1  UNL1        0.2258
     16 O          62.1890   87.7590    9.3223 O.2     1  UNL1       -0.2749
     17 C          63.0017   85.7623   12.6544 C.3     1  UNL1        0.1107
     18 C          63.0309   84.3466   13.1495 C.3     1  UNL1        0.0939
     19 C          63.0258   81.3288   11.3374 C.3     1  UNL1        0.0186
     20 C          62.6977   81.8059   12.7211 C.3     1  UNL1        0.0726
     21 C          62.3696   82.2830   14.1048 C.3     1  UNL1        0.0186
     22 C          62.7269   80.3903   13.2162 C.3     1  UNL1        0.1516
     23 O          63.5241   80.0391   14.4374 O.3     1  UNL1       -0.3806
     24 H          64.4682   80.1668   14.2550 H       1  UNL1        0.2105
     25 C          66.3067   91.8828   14.1010 C.3     1  UNL1        0.0164
     26 C          67.6027   91.5603   14.7840 C.3     1  UNL1        0.0014
     27 C          66.5231   92.2882   15.5290 C.3     1  UNL1        0.0014
     28 S          63.9714   90.0023   14.0021 S.O2    1  UNL1        0.0632
     29 O          64.6158   88.8534   13.7067 O.2     1  UNL1       -0.1528
     30 O          63.1599   91.0954   14.6321 O.2     1  UNL1       -0.1528
     31 C          63.6769   89.1099   15.1713 C.ar    1  UNL1        0.1222
     32 C          63.9522   87.6383   15.0796 C.ar    1  UNL1        0.0208
     33 C          63.6577   86.7459   16.2488 C.ar    1  UNL1        0.0128
     34 C          63.0879   87.3251   17.5096 C.ar    1  UNL1        0.0578
     35 CL         62.7934   86.4328   18.6788 Cl      1  UNL1       -0.0822
     36 C          62.8125   88.7968   17.6013 C.ar    1  UNL1        0.0128
     37 C          63.1070   89.6892   16.4321 C.ar    1  UNL1        0.0208
@<TRIPOS>BOND
     1    19    20    1
     2    20    21    1
     3    20    22    1
     4    22    23    1
     5    20    11    1
     6    11    12    1
     7    12    13    1
     8    13    14    1
     9    14    15   am
    10    15    16    2
    11    15    10    1
    12    10     7    1
    13     1     7    1
    14     1     2    1
    15     2     3    1
    16     3     4    1
    17     4     5    1
    18     5    25    1
    19    25    26    1
    20    26    27    1
    21     5     6    1
    22     6    28    1
    23    28    29    2
    24    28    30    2
    25    28    31    1
    26    31    32   ar
    27    32    33   ar
    28    33    34   ar
    29    34    35    1
    30    34    36   ar
    31    36    37   ar
    32     7     8    1
    33     8     9    1
    34    14    17    1
    35    17    18    1
    36    18    11    1
    37     9     7    1
    38     6     1    1
    39    37    31   ar
    40    27    25    1
    41    23    24    1
@<TRIPOS>MOLECULE
*****
 37 41 0 0 0
SMALL
GASTEIGER

@<TRIPOS>ATOM
      1 C          60.5572   88.7750    9.7266 C.3     1  UNL1        0.0799
      2 C          59.7929   89.7627    8.8958 C.3     1  UNL1        0.0178
      3 C          59.4087   89.4194    7.4871 C.3     1  UNL1        0.0029
      4 C          59.7889   88.0884    6.9091 C.3     1  UNL1        0.0178
      5 C          60.5532   87.1008    7.7399 C.3     1  UNL1        0.0795
      6 N          60.9374   87.4440    9.1486 N.3     1  UNL1       -0.1583
      7 C          60.9414   89.1182   11.1353 C.3     1  UNL1        0.0237
      8 C          59.5822   89.1900   11.7659 C.3     1  UNL1        0.0019
      9 C          60.8073   89.4450   12.5932 C.3     1  UNL1        0.0019
     10 C          62.4340   89.1657   10.9941 C.3     1  UNL1        0.0866
     11 N          65.9126   91.8980   14.1059 N.3     1  UNL1       -0.2699
     12 C          65.6854   92.7477   12.8909 C.3     1  UNL1        0.0939
     13 C          64.7588   92.2770   11.8092 C.3     1  UNL1        0.1107
     14 N          64.0597   90.9567   11.9426 N.am    1  UNL1       -0.2767
     15 C          63.1332   90.4860   10.8608 C.2     1  UNL1        0.2258
     16 O          62.9059   91.3357    9.6457 O.2     1  UNL1       -0.2749
     17 C          64.2869   90.1070   13.1576 C.3     1  UNL1        0.1107
     18 C          65.2134   90.5777   14.2393 C.3     1  UNL1        0.0939
     19 C          68.0045   92.2162   14.2557 C.3     1  UNL1        0.0186
     20 C          66.8391   92.3687   15.1877 C.3     1  UNL1        0.0726
     21 C          65.6737   92.5211   16.1196 C.3     1  UNL1        0.0186
     22 C          67.7656   92.8393   16.2694 C.3     1  UNL1        0.1516
     23 O          68.4421   94.1728   16.1499 O.3     1  UNL1       -0.3806
     24 H          69.0603   94.1559   15.4026 H       1  UNL1        0.2105
     25 C          60.9335   85.7698    7.1620 C.3     1  UNL1        0.0164
     26 C          61.9861   84.8135    6.6851 C.3     1  UNL1        0.0014
     27 C          60.5392   84.4207    6.6379 C.3     1  UNL1        0.0014
     28 S          61.7018   86.4564    9.9795 S.O2    1  UNL1        0.0632
     29 O          60.8082   86.0471   10.9050 O.2     1  UNL1       -0.1528
     30 O          62.9158   86.6787    9.1268 O.2     1  UNL1       -0.1528
     31 C          62.4663   85.4687   10.8103 C.ar    1  UNL1        0.1222
     32 C          62.5184   85.6244   12.3013 C.ar    1  UNL1        0.0208
     33 C          63.2829   84.6367   13.1321 C.ar    1  UNL1        0.0128
     34 C          63.9952   83.4935   12.4720 C.ar    1  UNL1        0.0578
     35 CL         64.7596   82.5060   13.3028 Cl      1  UNL1       -0.0822
     36 C          63.9430   83.3380   10.9810 C.ar    1  UNL1        0.0128
     37 C          63.1785   84.3256   10.1501 C.ar    1  UNL1        0.0208
@<TRIPOS>BOND
     1    19    20    1
     2    20    21    1
     3    20    22    1
     4    22    23    1
     5    20    11    1
     6    11    12    1
     7    12    13    1
     8    13    14    1
     9    14    15   am
    10    15    16    2
    11    15    10    1
    12    10     7    1
    13     1     7    1
    14     1     2    1
    15     2     3    1
    16     3     4    1
    17     4     5    1
    18     5    25    1
    19    25    26    1
    20    26    27    1
    21     5     6    1
    22     6    28    1
    23    28    29    2
    24    28    30    2
    25    28    31    1
    26    31    32   ar
    27    32    33   ar
    28    33    34   ar
    29    34    35    1
    30    34    36   ar
    31    36    37   ar
    32     7     8    1
    33     8     9    1
    34    14    17    1
    35    17    18    1
    36    18    11    1
    37     9     7    1
    38     6     1    1
    39    37    31   ar
    40    27    25    1
    41    23    24    1
@<TRIPOS>MOLECULE
*****
 37 41 0 0 0
SMALL
GASTEIGER

@<TRIPOS>ATOM
      1 C          60.7104   88.9871   10.0593 C.3     1  UNL1        0.0799
      2 C          59.9680   90.0104    9.2521 C.3     1  UNL1        0.0178
      3 C          59.5328   89.6903    7.8528 C.3     1  UNL1        0.0029
      4 C          59.8400   88.3468    7.2606 C.3     1  UNL1        0.0178
      5 C          60.5823   87.3234    8.0678 C.3     1  UNL1        0.0795
      6 N          61.0176   87.6435    9.4671 N.3     1  UNL1       -0.1583
      7 C          61.1456   89.3071   11.4586 C.3     1  UNL1        0.0237
      8 C          59.8077   89.4312   12.1255 C.3     1  UNL1        0.0019
      9 C          61.0637   89.6317   12.9208 C.3     1  UNL1        0.0019
     10 C          62.6346   89.2942   11.2777 C.3     1  UNL1        0.0866
     11 N          65.7450   93.7137   11.0692 N.3     1  UNL1       -0.2699
     12 C          65.8845   93.1722   12.4610 C.3     1  UNL1        0.0939
     13 C          65.1416   91.9319   12.8611 C.3     1  UNL1        0.1107
     14 N          64.2595   91.2332   11.8693 N.am    1  UNL1       -0.2767
     15 C          63.5167   89.9930   12.2695 C.2     1  UNL1        0.2258
     16 O          63.6561   89.4514   13.6614 O.2     1  UNL1       -0.2749
     17 C          64.1201   91.7747   10.4775 C.3     1  UNL1        0.1107
     18 C          64.8629   93.0150   10.0774 C.3     1  UNL1        0.0939
     19 C          66.8524   94.3139    9.3624 C.3     1  UNL1        0.0186
     20 C          66.4878   94.9540   10.6690 C.3     1  UNL1        0.0726
     21 C          66.1232   95.5940   11.9756 C.3     1  UNL1        0.0186
     22 C          67.2306   96.1941   10.2688 C.3     1  UNL1        0.1516
     23 O          67.8241   96.3027    8.8955 O.3     1  UNL1       -0.3806
     24 H          68.5345   95.6494    8.7977 H       1  UNL1        0.2105
     25 C          60.8896   85.9799    7.4757 C.3     1  UNL1        0.0164
     26 C          61.8750   84.8940    7.1600 C.3     1  UNL1        0.0014
     27 C          60.4360   84.7387    6.7659 C.3     1  UNL1        0.0014
     28 S          61.7599   86.6202   10.2744 S.O2    1  UNL1        0.0632
     29 O          60.8919   86.2824   11.2516 O.2     1  UNL1       -0.1528
     30 O          62.9392   86.7517    9.3566 O.2     1  UNL1       -0.1528
     31 C          62.5024   85.5968   11.0816 C.ar    1  UNL1        0.1222
     32 C          62.6520   85.7750   12.5634 C.ar    1  UNL1        0.0208
     33 C          63.3945   84.7517   13.3706 C.ar    1  UNL1        0.0128
     34 C          63.9874   83.5502   12.6961 C.ar    1  UNL1        0.0578
     35 CL         64.7298   82.5269   13.5032 Cl      1  UNL1       -0.0822
     36 C          63.8377   83.3721   11.2142 C.ar    1  UNL1        0.0128
     37 C          63.0952   84.3954   10.4069 C.ar    1  UNL1        0.0208
@<TRIPOS>BOND
     1    19    20    1
     2    20    21    1
     3    20    22    1
     4    22    23    1
     5    20    11    1
     6    11    12    1
     7    12    13    1
     8    13    14    1
     9    14    15   am
    10    15    16    2
    11    15    10    1
    12    10     7    1
    13     1     7    1
    14     1     2    1
    15     2     3    1
    16     3     4    1
    17     4     5    1
    18     5    25    1
    19    25    26    1
    20    26    27    1
    21     5     6    1
    22     6    28    1
    23    28    29    2
    24    28    30    2
    25    28    31    1
    26    31    32   ar
    27    32    33   ar
    28    33    34   ar
    29    34    35    1
    30    34    36   ar
    31    36    37   ar
    32     7     8    1
    33     8     9    1
    34    14    17    1
    35    17    18    1
    36    18    11    1
    37     9     7    1
    38     6     1    1
    39    37    31   ar
    40    27    25    1
    41    23    24    1
@<TRIPOS>MOLECULE
*****
 37 41 0 0 0
SMALL
GASTEIGER

@<TRIPOS>ATOM
      1 C          63.5123   90.1069   13.3938 C.3     1  UNL1        0.0799
      2 C          62.3558   89.5652   12.6070 C.3     1  UNL1        0.0178
      3 C          62.1578   89.9835   11.1802 C.3     1  UNL1        0.0029
      4 C          63.1164   90.9436   10.5402 C.3     1  UNL1        0.0178
      5 C          64.2728   91.4852   11.3270 C.3     1  UNL1        0.0795
      6 N          64.4708   91.0670   12.7538 N.3     1  UNL1       -0.1583
      7 C          63.7103   89.6886   14.8206 C.3     1  UNL1        0.0237
      8 C          63.3168   90.9556   15.5205 C.3     1  UNL1        0.0019
      9 C          63.7477   89.7608   16.3185 C.3     1  UNL1        0.0019
     10 C          64.1725   88.2763   14.6163 C.3     1  UNL1        0.0866
     11 N          63.0302   83.0660   13.7237 N.3     1  UNL1       -0.2699
     12 C          62.6655   83.3326   15.1540 C.3     1  UNL1        0.0939
     13 C          62.8599   84.7020   15.7347 C.3     1  UNL1        0.1107
     14 N          63.4190   85.8045   14.8851 N.am    1  UNL1       -0.2767
     15 C          63.6134   87.1738   15.4659 C.2     1  UNL1        0.2258
     16 O          63.2487   87.4405   16.8963 O.2     1  UNL1       -0.2749
     17 C          63.7837   85.5378   13.4548 C.3     1  UNL1        0.1107
     18 C          63.5892   84.1684   12.8740 C.3     1  UNL1        0.0939
     19 C          63.9177   81.9685   12.1402 C.3     1  UNL1        0.0186
     20 C          62.8357   81.6966   13.1429 C.3     1  UNL1        0.0726
     21 C          61.7538   81.4249   14.1455 C.3     1  UNL1        0.0186
     22 C          62.6414   80.3274   12.5621 C.3     1  UNL1        0.1516
     23 O          62.8379   80.1014   11.0922 O.3     1  UNL1       -0.3806
     24 H          62.1588   80.5856   10.5970 H       1  UNL1        0.2105
     25 C          65.2314   92.4452   10.6871 C.3     1  UNL1        0.0164
     26 C          66.5651   92.7257   10.0606 C.3     1  UNL1        0.0014
     27 C          65.5578   93.8278   10.2051 C.3     1  UNL1        0.0014
     28 S          65.6273   91.6086   13.5407 S.O2    1  UNL1        0.0632
     29 O          66.4020   90.5270   13.7695 O.2     1  UNL1       -0.1528
     30 O          65.0285   92.9824   13.4749 O.2     1  UNL1       -0.1528
     31 C          66.7837   92.1504   14.3276 C.ar    1  UNL1        0.1222
     32 C          68.1773   92.0424   13.7834 C.ar    1  UNL1        0.0208
     33 C          69.3338   92.5842   14.5703 C.ar    1  UNL1        0.0128
     34 C          69.0967   93.2339   15.9013 C.ar    1  UNL1        0.0578
     35 CL         70.2531   93.7757   16.6881 Cl      1  UNL1       -0.0822
     36 C          67.7030   93.3419   16.4454 C.ar    1  UNL1        0.0128
     37 C          66.5465   92.8001   15.6586 C.ar    1  UNL1        0.0208
@<TRIPOS>BOND
     1    19    20    1
     2    20    21    1
     3    20    22    1
     4    22    23    1
     5    20    11    1
     6    11    12    1
     7    12    13    1
     8    13    14    1
     9    14    15   am
    10    15    16    2
    11    15    10    1
    12    10     7    1
    13     1     7    1
    14     1     2    1
    15     2     3    1
    16     3     4    1
    17     4     5    1
    18     5    25    1
    19    25    26    1
    20    26    27    1
    21     5     6    1
    22     6    28    1
    23    28    29    2
    24    28    30    2
    25    28    31    1
    26    31    32   ar
    27    32    33   ar
    28    33    34   ar
    29    34    35    1
    30    34    36   ar
    31    36    37   ar
    32     7     8    1
    33     8     9    1
    34    14    17    1
    35    17    18    1
    36    18    11    1
    37     9     7    1
    38     6     1    1
    39    37    31   ar
    40    27    25    1
    41    23    24    1
@<TRIPOS>MOLECULE
*****
 37 41 0 0 0
SMALL
GASTEIGER

@<TRIPOS>ATOM
      1 C          61.9002   89.1333   11.5669 C.3     1  UNL1        0.0799
      2 C          61.3877   90.5286   11.3662 C.3     1  UNL1        0.0178
      3 C          60.4154   90.8188   10.2614 C.3     1  UNL1        0.0029
      4 C          59.9557   89.7136    9.3574 C.3     1  UNL1        0.0178
      5 C          60.4683   88.3183    9.5580 C.3     1  UNL1        0.0795
      6 N          61.4406   88.0281   10.6628 N.3     1  UNL1       -0.1583
      7 C          62.8725   88.8431   12.6717 C.3     1  UNL1        0.0237
      8 C          63.4222   87.5307   12.1968 C.3     1  UNL1        0.0019
      9 C          63.9184   88.1322   13.4783 C.3     1  UNL1        0.0019
     10 C          62.6604   90.0547   13.5302 C.3     1  UNL1        0.0866
     11 N          66.2933   93.2382   11.0976 N.3     1  UNL1       -0.2699
     12 C          66.6535   93.2330   12.5536 C.3     1  UNL1        0.0939
     13 C          65.8353   92.4358   13.5258 C.3     1  UNL1        0.1107
     14 N          64.6570   91.6438   13.0418 N.am    1  UNL1       -0.2767
     15 C          63.8388   90.8467   14.0141 C.2     1  UNL1        0.2258
     16 O          64.1991   90.8415   15.4702 O.2     1  UNL1       -0.2749
     17 C          64.2967   91.6490   11.5858 C.3     1  UNL1        0.1107
     18 C          65.1149   92.4462   10.6136 C.3     1  UNL1        0.0939
     19 C          66.4239   95.2901   10.5758 C.3     1  UNL1        0.0186
     20 C          67.1114   94.0354   10.1253 C.3     1  UNL1        0.0726
     21 C          67.7989   92.7806    9.6749 C.3     1  UNL1        0.0186
     22 C          67.9295   94.8325    9.1531 C.3     1  UNL1        0.1516
     23 O          67.6932   96.3065    9.0056 O.3     1  UNL1       -0.3806
     24 H          66.8092   96.4567    8.6355 H       1  UNL1        0.2105
     25 C          60.0087   87.2132    8.6540 C.3     1  UNL1        0.0164
     26 C          60.3062   85.9760    7.8598 C.3     1  UNL1        0.0014
     27 C          58.9149   86.5361    7.8825 C.3     1  UNL1        0.0014
     28 S          61.9532   86.6328   10.8636 S.O2    1  UNL1        0.0632
     29 O          61.2271   86.1640   11.9006 O.2     1  UNL1       -0.1528
     30 O          62.9126   86.8217    9.7260 O.2     1  UNL1       -0.1528
     31 C          62.4659   85.2375   11.0643 C.ar    1  UNL1        0.1222
     32 C          63.1863   84.5360    9.9512 C.ar    1  UNL1        0.0208
     33 C          63.6990   83.1406   10.1519 C.ar    1  UNL1        0.0128
     34 C          63.4914   82.4469   11.4655 C.ar    1  UNL1        0.0578
     35 CL         64.0041   81.0516   11.6661 Cl      1  UNL1       -0.0822
     36 C          62.7710   83.1485   12.5785 C.ar    1  UNL1        0.0128
     37 C          62.2582   84.5438   12.3779 C.ar    1  UNL1        0.0208
@<TRIPOS>BOND
     1    19    20    1
     2    20    21    1
     3    20    22    1
     4    22    23    1
     5    20    11    1
     6    11    12    1
     7    12    13    1
     8    13    14    1
     9    14    15   am
    10    15    16    2
    11    15    10    1
    12    10     7    1
    13     1     7    1
    14     1     2    1
    15     2     3    1
    16     3     4    1
    17     4     5    1
    18     5    25    1
    19    25    26    1
    20    26    27    1
    21     5     6    1
    22     6    28    1
    23    28    29    2
    24    28    30    2
    25    28    31    1
    26    31    32   ar
    27    32    33   ar
    28    33    34   ar
    29    34    35    1
    30    34    36   ar
    31    36    37   ar
    32     7     8    1
    33     8     9    1
    34    14    17    1
    35    17    18    1
    36    18    11    1
    37     9     7    1
    38     6     1    1
    39    37    31   ar
    40    27    25    1
    41    23    24    1
