@<TRIPOS>MOLECULE
*****
 32 35 0 0 0
SMALL
GASTEIGER

@<TRIPOS>ATOM
      1 C          64.3473   84.5658   15.1600 C.3     1  UNL1        0.0732
      2 N          63.9706   85.9613   15.5613 N.3     1  UNL1       -0.2682
      3 C          63.2293   86.1987   16.8435 C.3     1  UNL1        0.1046
      4 C          62.8527   87.5941   17.2446 C.3     1  UNL1        0.1598
      5 O          63.2173   88.7520   16.3636 O.3     1  UNL1       -0.3489
      6 C          63.9586   88.5146   15.0814 C.3     1  UNL1        0.1534
      7 C          64.3353   87.1192   14.6803 C.3     1  UNL1        0.1067
      8 C          64.3233   89.6726   14.2004 C.ar    1  UNL1        0.0059
      9 C          65.4419   90.5912   14.5939 C.ar    1  UNL1       -0.0020
     10 C          65.8065   91.7491   13.7129 C.ar    1  UNL1        0.0036
     11 C          65.0526   91.9885   12.4384 C.ar    1  UNL1        0.0714
     12 C          63.9340   91.0698   12.0450 C.ar    1  UNL1        0.0036
     13 C          63.5693   89.9119   12.9260 C.ar    1  UNL1       -0.0020
     14 C          65.4172   93.1464   11.5574 C.3     1  UNL1        0.4186
     15 F          65.7819   94.3044   10.6764 F       1  UNL1       -0.1659
     16 F          64.8303   92.4324   10.3760 F       1  UNL1       -0.1659
     17 F          66.0042   93.8604   12.7388 F       1  UNL1       -0.1659
     18 C          63.6659   83.9106   13.9954 C.3     1  UNL1        0.0294
     19 C          64.3956   83.7458   12.6952 C.3     1  UNL1        0.0666
     20 S          63.6514   83.8598   11.3979 S.3     1  UNL1       -0.0756
     21 C          61.2188   86.6188   10.1589 C.ar    1  UNL1        0.2029
     22 N          60.9990   86.6829   11.6414 N.ar    1  UNL1       -0.1250
     23 N          61.8835   85.6572   12.2859 N.ar    1  UNL1       -0.1220
     24 C          62.6500   84.9591   11.2018 C.ar    1  UNL1        0.1933
     25 N          62.2391   85.5535    9.8873 N.ar    1  UNL1       -0.2860
     26 C          62.7576   85.1528    8.5380 C.3     1  UNL1        0.1341
     27 C          61.3950   89.8699    9.9374 C.3     1  UNL1        0.0556
     28 C          60.6188   88.9650    9.0272 C.ar    1  UNL1        0.1001
     29 N          59.7872   89.3955    7.8554 N.ar    1  UNL1       -0.2085
     30 C          59.1923   88.1671    7.2330 C.ar    1  UNL1        0.2849
     31 O          59.6562   86.9775    8.0202 O.2     1  UNL1       -0.4283
     32 C          60.5377   87.4706    9.1290 C.ar    1  UNL1        0.1964
@<TRIPOS>BOND
     1    27    28    1
     2    28    29   ar
     3    29    30   ar
     4    30    31   ar
     5    31    32   ar
     6    32    21    1
     7    21    22   ar
     8    22    23   ar
     9    23    24   ar
    10    24    20    1
    11    20    19    1
    12    19    18    1
    13    18     1    1
    14     1     2    1
    15     2     3    1
    16     3     4    1
    17     4     5    1
    18     5     6    1
    19     6     8    1
    20     8     9   ar
    21     9    10   ar
    22    10    11   ar
    23    11    14    1
    24    14    15    1
    25    14    16    1
    26    14    17    1
    27    11    12   ar
    28    12    13   ar
    29     6     7    1
    30    24    25   ar
    31    25    26    1
    32    32    28   ar
    33    25    21   ar
    34     7     2    1
    35    13     8   ar
@<TRIPOS>MOLECULE
*****
 32 35 0 0 0
SMALL
GASTEIGER

@<TRIPOS>ATOM
      1 C          64.5379   88.3736   14.5792 C.3     1  UNL1        0.0732
      2 N          63.8992   87.1084   15.0707 N.3     1  UNL1       -0.2682
      3 C          63.3534   87.0367   16.4659 C.3     1  UNL1        0.1046
      4 C          62.7147   85.7716   16.9573 C.3     1  UNL1        0.1598
      5 O          62.6220   84.5781   16.0534 O.3     1  UNL1       -0.3489
      6 C          63.1678   84.6498   14.6581 C.3     1  UNL1        0.1534
      7 C          63.8064   85.9150   14.1668 C.3     1  UNL1        0.1067
      8 C          63.0750   83.4563   13.7542 C.ar    1  UNL1        0.0059
      9 C          62.2806   82.2560   14.1761 C.ar    1  UNL1       -0.0020
     10 C          62.1879   81.0625   13.2722 C.ar    1  UNL1        0.0036
     11 C          62.8895   81.0694   11.9464 C.ar    1  UNL1        0.0714
     12 C          63.6839   82.2698   11.5246 C.ar    1  UNL1        0.0036
     13 C          63.7767   83.4632   12.4285 C.ar    1  UNL1       -0.0020
     14 C          62.7967   79.8760   11.0425 C.3     1  UNL1        0.4186
     15 F          62.7040   78.6825   10.1386 F       1  UNL1       -0.1659
     16 F          63.1442   80.7397    9.8664 F       1  UNL1       -0.1659
     17 F          62.4492   79.0122   12.2186 F       1  UNL1       -0.1659
     18 C          63.7099   89.4072   13.8748 C.3     1  UNL1        0.0294
     19 C          64.0180   90.8643   14.0535 C.3     1  UNL1        0.0666
     20 S          65.4415   91.3372   14.0389 S.3     1  UNL1       -0.0756
     21 C          66.0942   94.4401   11.8004 C.ar    1  UNL1        0.2029
     22 N          66.5385   94.9500   13.1393 N.ar    1  UNL1       -0.1250
     23 N          66.3480   93.8496   14.1408 N.ar    1  UNL1       -0.1220
     24 C          65.7860   92.6598   13.4209 C.ar    1  UNL1        0.1933
     25 N          65.6292   93.0247   11.9744 N.ar    1  UNL1       -0.2860
     26 C          65.1001   92.1311   10.8921 C.3     1  UNL1        0.1341
     27 C          67.9787   93.8079    9.2122 C.3     1  UNL1        0.0556
     28 C          66.9781   94.9198    9.3237 C.ar    1  UNL1        0.1001
     29 N          66.6680   95.9363    8.2652 N.ar    1  UNL1       -0.2085
     30 C          65.6101   96.8551    8.8007 C.ar    1  UNL1        0.2849
     31 O          65.2664   96.4065   10.1901 O.2     1  UNL1       -0.4283
     32 C          66.1118   95.2104   10.5134 C.ar    1  UNL1        0.1964
@<TRIPOS>BOND
     1    27    28    1
     2    28    29   ar
     3    29    30   ar
     4    30    31   ar
     5    31    32   ar
     6    32    21    1
     7    21    22   ar
     8    22    23   ar
     9    23    24   ar
    10    24    20    1
    11    20    19    1
    12    19    18    1
    13    18     1    1
    14     1     2    1
    15     2     3    1
    16     3     4    1
    17     4     5    1
    18     5     6    1
    19     6     8    1
    20     8     9   ar
    21     9    10   ar
    22    10    11   ar
    23    11    14    1
    24    14    15    1
    25    14    16    1
    26    14    17    1
    27    11    12   ar
    28    12    13   ar
    29     6     7    1
    30    24    25   ar
    31    25    26    1
    32    32    28   ar
    33    25    21   ar
    34     7     2    1
    35    13     8   ar
@<TRIPOS>MOLECULE
*****
 32 35 0 0 0
SMALL
GASTEIGER

@<TRIPOS>ATOM
      1 C          64.2804   85.6371   15.6674 C.3     1  UNL1        0.0732
      2 N          63.9525   84.9539   14.3729 N.3     1  UNL1       -0.2682
      3 C          64.3937   83.5396   14.1384 C.3     1  UNL1        0.1046
      4 C          64.0657   82.8565   12.8439 C.3     1  UNL1        0.1598
      5 O          63.2965   83.5877   11.7839 O.3     1  UNL1       -0.3489
      6 C          62.8553   85.0020   12.0183 C.3     1  UNL1        0.1534
      7 C          63.1832   85.6851   13.3128 C.3     1  UNL1        0.1067
      8 C          62.0860   85.7332   10.9583 C.ar    1  UNL1        0.0059
      9 C          62.2866   85.3870    9.5127 C.ar    1  UNL1       -0.0020
     10 C          61.5173   86.1181    8.4527 C.ar    1  UNL1        0.0036
     11 C          60.5476   87.1956    8.8383 C.ar    1  UNL1        0.0714
     12 C          60.3471   87.5418   10.2839 C.ar    1  UNL1        0.0036
     13 C          61.1163   86.8106   11.3439 C.ar    1  UNL1       -0.0020
     14 C          59.7784   87.9268    7.7782 C.3     1  UNL1        0.4186
     15 F          59.0092   88.6580    6.7182 F       1  UNL1       -0.1659
     16 F          60.3181   89.2309    8.2862 F       1  UNL1       -0.1659
     17 F          59.2387   86.6226    7.2703 F       1  UNL1       -0.1659
     18 C          63.1801   86.0288   16.6085 C.3     1  UNL1        0.0294
     19 C          63.1522   87.4082   17.1971 C.3     1  UNL1        0.0666
     20 S          62.4930   88.5294   16.4498 S.3     1  UNL1       -0.0756
     21 C          64.6910   91.2317   14.7376 C.ar    1  UNL1        0.2029
     22 N          64.3689   91.9025   16.0400 N.ar    1  UNL1       -0.1250
     23 N          63.5064   90.9719   16.8399 N.ar    1  UNL1       -0.1220
     24 C          63.2953   89.7259   16.0319 C.ar    1  UNL1        0.1933
     25 N          64.0275   89.8864   14.7326 N.ar    1  UNL1       -0.2860
     26 C          64.0858   88.8787   13.6231 C.3     1  UNL1        0.1341
     27 C          67.8730   91.9341   14.9130 C.3     1  UNL1        0.0556
     28 C          66.9920   92.1283   13.7146 C.ar    1  UNL1        0.1001
     29 N          67.4189   92.6794   12.3864 N.ar    1  UNL1       -0.2085
     30 C          66.2201   92.6970   11.4849 C.ar    1  UNL1        0.2849
     31 O          65.0523   92.1569   12.2560 O.2     1  UNL1       -0.4283
     32 C          65.5293   91.8054   13.6339 C.ar    1  UNL1        0.1964
@<TRIPOS>BOND
     1    27    28    1
     2    28    29   ar
     3    29    30   ar
     4    30    31   ar
     5    31    32   ar
     6    32    21    1
     7    21    22   ar
     8    22    23   ar
     9    23    24   ar
    10    24    20    1
    11    20    19    1
    12    19    18    1
    13    18     1    1
    14     1     2    1
    15     2     3    1
    16     3     4    1
    17     4     5    1
    18     5     6    1
    19     6     8    1
    20     8     9   ar
    21     9    10   ar
    22    10    11   ar
    23    11    14    1
    24    14    15    1
    25    14    16    1
    26    14    17    1
    27    11    12   ar
    28    12    13   ar
    29     6     7    1
    30    24    25   ar
    31    25    26    1
    32    32    28   ar
    33    25    21   ar
    34     7     2    1
    35    13     8   ar
@<TRIPOS>MOLECULE
*****
 32 35 0 0 0
SMALL
GASTEIGER

@<TRIPOS>ATOM
      1 C          64.6256   88.5291   15.2791 C.3     1  UNL1        0.0732
      2 N          63.8512   87.3003   15.6540 N.3     1  UNL1       -0.2682
      3 C          63.1263   87.2418   16.9658 C.3     1  UNL1        0.1046
      4 C          62.3520   86.0131   17.3406 C.3     1  UNL1        0.1598
      5 O          62.3025   84.8429   16.4036 O.3     1  UNL1       -0.3489
      6 C          63.0275   84.9013   15.0917 C.3     1  UNL1        0.1534
      7 C          63.8018   86.1301   14.7169 C.3     1  UNL1        0.1067
      8 C          62.9780   83.7311   14.1547 C.ar    1  UNL1        0.0059
      9 C          62.1977   82.5052   14.5263 C.ar    1  UNL1       -0.0020
     10 C          62.1483   81.3349   13.5892 C.ar    1  UNL1        0.0036
     11 C          62.8792   81.3906   12.2806 C.ar    1  UNL1        0.0714
     12 C          63.6596   82.6165   11.9090 C.ar    1  UNL1        0.0036
     13 C          63.7090   83.7868   12.8460 C.ar    1  UNL1       -0.0020
     14 C          62.8298   80.2203   11.3435 C.3     1  UNL1        0.4186
     15 F          62.7804   79.0501   10.4065 F       1  UNL1       -0.1659
     16 F          63.2124   81.1170   10.2035 F       1  UNL1       -0.1659
     17 F          62.4472   79.3237   12.4835 F       1  UNL1       -0.1659
     18 C          63.9003   89.7826   14.8882 C.3     1  UNL1        0.0294
     19 C          64.1711   90.4222   13.5587 C.3     1  UNL1        0.0666
     20 S          63.1028   90.4450   12.5059 S.3     1  UNL1       -0.0756
     21 C          61.6121   87.5929   10.3360 C.ar    1  UNL1        0.2029
     22 N          62.3712   86.8081   11.3646 N.ar    1  UNL1       -0.1250
     23 N          63.0220   87.7810   12.3026 N.ar    1  UNL1       -0.1220
     24 C          62.6652   89.1670   11.8538 C.ar    1  UNL1        0.1933
     25 N          61.7938   89.0508   10.6384 N.ar    1  UNL1       -0.2860
     26 C          61.2072   90.1921    9.8616 C.3     1  UNL1        0.1341
     27 C          62.6472   85.3610    8.1919 C.3     1  UNL1        0.0556
     28 C          61.2878   85.9944    8.2183 C.ar    1  UNL1        0.1001
     29 N          60.1653   85.7131    7.2638 N.ar    1  UNL1       -0.2085
     30 C          58.9959   86.5652    7.6594 C.ar    1  UNL1        0.2849
     31 O          59.3955   87.3731    8.8584 O.2     1  UNL1       -0.4283
     32 C          60.8119   87.0203    9.2038 C.ar    1  UNL1        0.1964
@<TRIPOS>BOND
     1    27    28    1
     2    28    29   ar
     3    29    30   ar
     4    30    31   ar
     5    31    32   ar
     6    32    21    1
     7    21    22   ar
     8    22    23   ar
     9    23    24   ar
    10    24    20    1
    11    20    19    1
    12    19    18    1
    13    18     1    1
    14     1     2    1
    15     2     3    1
    16     3     4    1
    17     4     5    1
    18     5     6    1
    19     6     8    1
    20     8     9   ar
    21     9    10   ar
    22    10    11   ar
    23    11    14    1
    24    14    15    1
    25    14    16    1
    26    14    17    1
    27    11    12   ar
    28    12    13   ar
    29     6     7    1
    30    24    25   ar
    31    25    26    1
    32    32    28   ar
    33    25    21   ar
    34     7     2    1
    35    13     8   ar
@<TRIPOS>MOLECULE
*****
 32 35 0 0 0
SMALL
GASTEIGER

@<TRIPOS>ATOM
      1 C          64.2996   86.5106   15.2998 C.3     1  UNL1        0.0732
      2 N          63.9001   85.7177   14.0907 N.3     1  UNL1       -0.2682
      3 C          64.3233   84.2846   13.9602 C.3     1  UNL1        0.1046
      4 C          63.9238   83.4918   12.7511 C.3     1  UNL1        0.1598
      5 O          63.1010   84.1321   11.6727 O.3     1  UNL1       -0.3489
      6 C          62.6778   85.5652   11.8032 C.3     1  UNL1        0.1534
      7 C          63.0773   86.3580   13.0123 C.3     1  UNL1        0.1067
      8 C          61.8550   86.2055   10.7248 C.ar    1  UNL1        0.0059
      9 C          61.9537   85.7103    9.3123 C.ar    1  UNL1       -0.0020
     10 C          61.1309   86.3506    8.2339 C.ar    1  UNL1        0.0036
     11 C          60.2095   87.4860    8.5678 C.ar    1  UNL1        0.0714
     12 C          60.1108   87.9812    9.9803 C.ar    1  UNL1        0.0036
     13 C          60.9335   87.3409   11.0587 C.ar    1  UNL1       -0.0020
     14 C          59.3867   88.1263    7.4894 C.3     1  UNL1        0.4186
     15 F          58.5639   88.7666    6.4109 F       1  UNL1       -0.1659
     16 F          59.9186   89.4725    7.8828 F       1  UNL1       -0.1659
     17 F          58.8548   86.7801    7.0959 F       1  UNL1       -0.1659
     18 C          63.9064   87.9536   15.4140 C.3     1  UNL1        0.0294
     19 C          64.5734   88.9832   14.5508 C.3     1  UNL1        0.0666
     20 S          63.9302   90.3232   14.3488 S.3     1  UNL1       -0.0756
     21 C          65.8275   93.2205   12.5964 C.ar    1  UNL1        0.2029
     22 N          66.2650   93.4062   14.0191 N.ar    1  UNL1       -0.1250
     23 N          65.6075   92.3434   14.8487 N.ar    1  UNL1       -0.1220
     24 C          64.7637   91.5009   13.9388 C.ar    1  UNL1        0.1933
     25 N          64.8996   92.0430   12.5468 N.ar    1  UNL1       -0.2860
     26 C          64.2259   91.5025   11.3204 C.3     1  UNL1        0.1341
     27 C          67.7034   92.2561   10.1063 C.3     1  UNL1        0.0556
     28 C          67.1069   93.6209   10.2838 C.ar    1  UNL1        0.1001
     29 N          67.2679   94.7821    9.3480 N.ar    1  UNL1       -0.2085
     30 C          66.5050   95.9430    9.9142 C.ar    1  UNL1        0.2849
     31 O          65.8726   95.4993   11.2000 O.2     1  UNL1       -0.4283
     32 C          66.2446   94.0642   11.4284 C.ar    1  UNL1        0.1964
@<TRIPOS>BOND
     1    27    28    1
     2    28    29   ar
     3    29    30   ar
     4    30    31   ar
     5    31    32   ar
     6    32    21    1
     7    21    22   ar
     8    22    23   ar
     9    23    24   ar
    10    24    20    1
    11    20    19    1
    12    19    18    1
    13    18     1    1
    14     1     2    1
    15     2     3    1
    16     3     4    1
    17     4     5    1
    18     5     6    1
    19     6     8    1
    20     8     9   ar
    21     9    10   ar
    22    10    11   ar
    23    11    14    1
    24    14    15    1
    25    14    16    1
    26    14    17    1
    27    11    12   ar
    28    12    13   ar
    29     6     7    1
    30    24    25   ar
    31    25    26    1
    32    32    28   ar
    33    25    21   ar
    34     7     2    1
    35    13     8   ar
@<TRIPOS>MOLECULE
*****
 32 35 0 0 0
SMALL
GASTEIGER

@<TRIPOS>ATOM
      1 C          64.3389   87.7830   14.6783 C.3     1  UNL1        0.0732
      2 N          63.6949   87.2504   13.4326 N.3     1  UNL1       -0.2682
      3 C          63.0901   88.1962   12.4378 C.3     1  UNL1        0.1046
      4 C          62.4462   87.6636   11.1922 C.3     1  UNL1        0.1598
      5 O          62.4070   86.1852   10.9414 O.3     1  UNL1       -0.3489
      6 C          63.0117   85.2394   11.9362 C.3     1  UNL1        0.1534
      7 C          63.6557   85.7720   13.1818 C.3     1  UNL1        0.1067
      8 C          62.9725   83.7611   11.6854 C.ar    1  UNL1        0.0059
      9 C          63.5117   83.2036   10.4015 C.ar    1  UNL1       -0.0020
     10 C          63.4725   81.7252   10.1507 C.ar    1  UNL1        0.0036
     11 C          62.8941   80.8043   11.1839 C.ar    1  UNL1        0.0714
     12 C          62.3549   81.3618   12.4678 C.ar    1  UNL1        0.0036
     13 C          62.3941   82.8402   12.7186 C.ar    1  UNL1       -0.0020
     14 C          62.8549   79.3260   10.9331 C.3     1  UNL1        0.4186
     15 F          62.8157   77.8476   10.6823 F       1  UNL1       -0.1659
     16 F          62.5075   79.0909   12.3732 F       1  UNL1       -0.1659
     17 F          63.2024   79.5611    9.4929 F       1  UNL1       -0.1659
     18 C          63.8764   89.0839   15.2644 C.3     1  UNL1        0.0294
     19 C          64.5989   90.3556   14.9312 C.3     1  UNL1        0.0666
     20 S          64.1738   91.1714   13.7465 S.3     1  UNL1       -0.0756
     21 C          66.2495   93.6866   11.6415 C.ar    1  UNL1        0.2029
     22 N          66.7562   93.9773   13.0231 N.ar    1  UNL1       -0.1250
     23 N          66.0404   93.0705   13.9797 N.ar    1  UNL1       -0.1220
     24 C          65.0912   92.2194   13.1895 C.ar    1  UNL1        0.1933
     25 N          65.2204   92.6001   11.7443 N.ar    1  UNL1       -0.2860
     26 C          64.4550   91.9998   10.6025 C.3     1  UNL1        0.1341
     27 C          68.3070   92.4563    9.4273 C.3     1  UNL1        0.0556
     28 C          67.6395   93.7979    9.3610 C.ar    1  UNL1        0.1001
     29 N          67.8006   94.8097    8.2654 N.ar    1  UNL1       -0.2085
     30 C          66.9543   96.0005    8.6060 C.ar    1  UNL1        0.2849
     31 O          66.2703   95.7247    9.9122 O.2     1  UNL1       -0.4283
     32 C          66.6937   94.3635   10.3788 C.ar    1  UNL1        0.1964
@<TRIPOS>BOND
     1    27    28    1
     2    28    29   ar
     3    29    30   ar
     4    30    31   ar
     5    31    32   ar
     6    32    21    1
     7    21    22   ar
     8    22    23   ar
     9    23    24   ar
    10    24    20    1
    11    20    19    1
    12    19    18    1
    13    18     1    1
    14     1     2    1
    15     2     3    1
    16     3     4    1
    17     4     5    1
    18     5     6    1
    19     6     8    1
    20     8     9   ar
    21     9    10   ar
    22    10    11   ar
    23    11    14    1
    24    14    15    1
    25    14    16    1
    26    14    17    1
    27    11    12   ar
    28    12    13   ar
    29     6     7    1
    30    24    25   ar
    31    25    26    1
    32    32    28   ar
    33    25    21   ar
    34     7     2    1
    35    13     8   ar
@<TRIPOS>MOLECULE
*****
 32 35 0 0 0
SMALL
GASTEIGER

@<TRIPOS>ATOM
      1 C          64.5513   90.7717   14.9827 C.3     1  UNL1        0.0732
      2 N          64.3682   91.0416   13.5185 N.3     1  UNL1       -0.2682
      3 C          65.1515   92.1344   12.8536 C.3     1  UNL1        0.1046
      4 C          64.9684   92.4043   11.3896 C.3     1  UNL1        0.1598
      5 O          64.0019   91.5814   10.5904 O.3     1  UNL1       -0.3489
      6 C          63.2186   90.4886   11.2553 C.3     1  UNL1        0.1534
      7 C          63.4017   90.2187   12.7193 C.3     1  UNL1        0.1067
      8 C          62.2521   89.6657   10.4561 C.ar    1  UNL1        0.0059
      9 C          62.6237   88.2765   10.0293 C.ar    1  UNL1       -0.0020
     10 C          61.6573   87.4536    9.2301 C.ar    1  UNL1        0.0036
     11 C          60.3191   88.0198    8.8577 C.ar    1  UNL1        0.0714
     12 C          59.9475   89.4089    9.2844 C.ar    1  UNL1        0.0036
     13 C          60.9139   90.2319   10.0836 C.ar    1  UNL1       -0.0020
     14 C          59.3526   87.1969    8.0585 C.3     1  UNL1        0.4186
     15 F          58.3862   86.3739    7.2593 F       1  UNL1       -0.1659
     16 F          60.0324   85.9442    8.5263 F       1  UNL1       -0.1659
     17 F          58.6729   88.4495    7.5907 F       1  UNL1       -0.1659
     18 C          63.5071   90.0070   15.7407 C.3     1  UNL1        0.0294
     19 C          63.6209   88.5177   15.8792 C.3     1  UNL1        0.0666
     20 S          64.4491   87.7349   14.9039 S.3     1  UNL1       -0.0756
     21 C          63.0034   84.4756   13.3700 C.ar    1  UNL1        0.2029
     22 N          62.6864   85.4690   12.2917 N.ar    1  UNL1       -0.1250
     23 N          63.1893   86.8108   12.7351 N.ar    1  UNL1       -0.1220
     24 C          63.8172   86.6468   14.0874 C.ar    1  UNL1        0.1933
     25 N          63.7023   85.2035   14.4798 N.ar    1  UNL1       -0.2860
     26 C          64.1990   84.5951   15.7577 C.3     1  UNL1        0.1341
     27 C          63.9331   82.3462   11.0785 C.3     1  UNL1        0.0556
     28 C          63.1059   82.0327   12.2899 C.ar    1  UNL1        0.1001
     29 N          62.5608   80.6853   12.6608 N.ar    1  UNL1       -0.2085
     30 C          61.7966   80.8315   13.9433 C.ar    1  UNL1        0.2849
     31 O          61.8694   82.2691   14.3650 O.2     1  UNL1       -0.4283
     32 C          62.6785   83.0115   13.3433 C.ar    1  UNL1        0.1964
@<TRIPOS>BOND
     1    27    28    1
     2    28    29   ar
     3    29    30   ar
     4    30    31   ar
     5    31    32   ar
     6    32    21    1
     7    21    22   ar
     8    22    23   ar
     9    23    24   ar
    10    24    20    1
    11    20    19    1
    12    19    18    1
    13    18     1    1
    14     1     2    1
    15     2     3    1
    16     3     4    1
    17     4     5    1
    18     5     6    1
    19     6     8    1
    20     8     9   ar
    21     9    10   ar
    22    10    11   ar
    23    11    14    1
    24    14    15    1
    25    14    16    1
    26    14    17    1
    27    11    12   ar
    28    12    13   ar
    29     6     7    1
    30    24    25   ar
    31    25    26    1
    32    32    28   ar
    33    25    21   ar
    34     7     2    1
    35    13     8   ar
@<TRIPOS>MOLECULE
*****
 32 35 0 0 0
SMALL
GASTEIGER

@<TRIPOS>ATOM
      1 C          63.7850   83.6602   14.9428 C.3     1  UNL1        0.0732
      2 N          63.7248   83.5426   13.4486 N.3     1  UNL1       -0.2682
      3 C          64.4634   82.4379   12.7529 C.3     1  UNL1        0.1046
      4 C          64.4032   82.3203   11.2587 C.3     1  UNL1        0.1598
      5 O          63.6043   83.3074   10.4603 O.3     1  UNL1       -0.3489
      6 C          62.8657   84.4121   11.1561 C.3     1  UNL1        0.1534
      7 C          62.9259   84.5297   12.6502 C.3     1  UNL1        0.1067
      8 C          62.0668   85.3992   10.3577 C.ar    1  UNL1        0.0059
      9 C          62.1273   85.3758    8.8591 C.ar    1  UNL1       -0.0020
     10 C          61.3284   86.3629    8.0607 C.ar    1  UNL1        0.0036
     11 C          60.4691   87.3734    8.7609 C.ar    1  UNL1        0.0714
     12 C          60.4086   87.3968   10.2595 C.ar    1  UNL1        0.0036
     13 C          61.2074   86.4097   11.0579 C.ar    1  UNL1       -0.0020
     14 C          59.6702   88.3605    7.9625 C.3     1  UNL1        0.4186
     15 F          58.8713   89.3476    7.1641 F       1  UNL1       -0.1659
     16 F          60.3438   89.4897    8.6845 F       1  UNL1       -0.1659
     17 F          58.9966   87.2314    7.2405 F       1  UNL1       -0.1659
     18 C          62.5252   83.8662   15.7303 C.3     1  UNL1        0.0294
     19 C          62.1666   85.2355   16.2270 C.3     1  UNL1        0.0666
     20 S          63.2092   86.0929   16.8812 S.3     1  UNL1       -0.0756
     21 C          63.8591   89.5475   15.2355 C.ar    1  UNL1        0.2029
     22 N          63.2595   89.9595   16.5473 N.ar    1  UNL1       -0.1250
     23 N          62.9431   88.7155   17.3234 N.ar    1  UNL1       -0.1220
     24 C          63.3471   87.5347   16.4913 C.ar    1  UNL1        0.1933
     25 N          63.9132   88.0489   15.2009 N.ar    1  UNL1       -0.2860
     26 C          64.4408   87.2115   14.0738 C.3     1  UNL1        0.1341
     27 C          62.4834   89.8969   12.2969 C.3     1  UNL1        0.0556
     28 C          63.6907   90.6324   12.7983 C.ar    1  UNL1        0.1001
     29 N          64.4777   91.6577   12.0371 N.ar    1  UNL1       -0.2085
     30 C          65.5964   92.1307   12.9174 C.ar    1  UNL1        0.2849
     31 O          65.5008   91.3978   14.2226 O.2     1  UNL1       -0.4283
     32 C          64.3231   90.4718   14.1491 C.ar    1  UNL1        0.1964
@<TRIPOS>BOND
     1    27    28    1
     2    28    29   ar
     3    29    30   ar
     4    30    31   ar
     5    31    32   ar
     6    32    21    1
     7    21    22   ar
     8    22    23   ar
     9    23    24   ar
    10    24    20    1
    11    20    19    1
    12    19    18    1
    13    18     1    1
    14     1     2    1
    15     2     3    1
    16     3     4    1
    17     4     5    1
    18     5     6    1
    19     6     8    1
    20     8     9   ar
    21     9    10   ar
    22    10    11   ar
    23    11    14    1
    24    14    15    1
    25    14    16    1
    26    14    17    1
    27    11    12   ar
    28    12    13   ar
    29     6     7    1
    30    24    25   ar
    31    25    26    1
    32    32    28   ar
    33    25    21   ar
    34     7     2    1
    35    13     8   ar
@<TRIPOS>MOLECULE
*****
 32 35 0 0 0
SMALL
GASTEIGER

@<TRIPOS>ATOM
      1 C          64.2341   87.4219   15.3227 C.3     1  UNL1        0.0732
      2 N          63.7137   86.1788   14.6638 N.3     1  UNL1       -0.2682
      3 C          63.4260   84.9582   15.4866 C.3     1  UNL1        0.1046
      4 C          62.9056   83.7152   14.8278 C.3     1  UNL1        0.1598
      5 O          62.6729   83.6929   13.3461 O.3     1  UNL1       -0.3489
      6 C          62.9606   84.9136   12.5233 C.3     1  UNL1        0.1534
      7 C          63.4810   86.1566   13.1822 C.3     1  UNL1        0.1067
      8 C          62.7280   84.8913   11.0416 C.ar    1  UNL1        0.0059
      9 C          63.4854   83.9268   10.1779 C.ar    1  UNL1       -0.0020
     10 C          63.2527   83.9045    8.6962 C.ar    1  UNL1        0.0036
     11 C          62.2626   84.8467    8.0783 C.ar    1  UNL1        0.0714
     12 C          61.5052   85.8112    8.9420 C.ar    1  UNL1        0.0036
     13 C          61.7379   85.8335   10.4236 C.ar    1  UNL1       -0.0020
     14 C          62.0300   84.8245    6.5966 C.3     1  UNL1        0.4186
     15 F          61.7973   84.8022    5.1149 F       1  UNL1       -0.1659
     16 F          60.5643   85.0492    6.8234 F       1  UNL1       -0.1659
     17 F          63.4956   84.5997    6.3698 F       1  UNL1       -0.1659
     18 C          64.2799   88.7124   14.5594 C.3     1  UNL1        0.0294
     19 C          63.9314   90.0011   15.2434 C.3     1  UNL1        0.0666
     20 S          64.7054   91.2479   14.9334 S.3     1  UNL1       -0.0756
     21 C          65.6191   92.8976   11.5409 C.ar    1  UNL1        0.2029
     22 N          64.6155   91.8721   11.1036 N.ar    1  UNL1       -0.1250
     23 N          64.1511   91.1294   12.3212 N.ar    1  UNL1       -0.1220
     24 C          64.8676   91.6958   13.5110 C.ar    1  UNL1        0.1933
     25 N          65.7750   92.7886   13.0288 N.ar    1  UNL1       -0.2860
     26 C          66.6793   93.6254   13.8842 C.3     1  UNL1        0.1341
     27 C          68.1473   92.1935    9.6012 C.3     1  UNL1        0.0556
     28 C          67.5024   93.5389    9.7556 C.ar    1  UNL1        0.1001
     29 N          67.9063   94.7970    9.0456 N.ar    1  UNL1       -0.2085
     30 C          66.9938   95.8981    9.4983 C.ar    1  UNL1        0.2849
     31 O          66.0260   95.3206   10.4882 O.2     1  UNL1       -0.4283
     32 C          66.3403   93.8626   10.6472 C.ar    1  UNL1        0.1964
@<TRIPOS>BOND
     1    27    28    1
     2    28    29   ar
     3    29    30   ar
     4    30    31   ar
     5    31    32   ar
     6    32    21    1
     7    21    22   ar
     8    22    23   ar
     9    23    24   ar
    10    24    20    1
    11    20    19    1
    12    19    18    1
    13    18     1    1
    14     1     2    1
    15     2     3    1
    16     3     4    1
    17     4     5    1
    18     5     6    1
    19     6     8    1
    20     8     9   ar
    21     9    10   ar
    22    10    11   ar
    23    11    14    1
    24    14    15    1
    25    14    16    1
    26    14    17    1
    27    11    12   ar
    28    12    13   ar
    29     6     7    1
    30    24    25   ar
    31    25    26    1
    32    32    28   ar
    33    25    21   ar
    34     7     2    1
    35    13     8   ar
