@<TRIPOS>MOLECULE
*****
 44 48 0 0 0
SMALL
GASTEIGER

@<TRIPOS>ATOM
      1 C          62.8427   86.7228   11.6814 C.3     1  UNL1        0.1696
      2 C          62.9460   85.6667   12.7416 C.3     1  UNL1        0.1274
      3 N          63.0706   85.8410   14.2262 N.am    1  UNL1       -0.2518
      4 C          63.1542   84.5744   15.0254 C.2     1  UNL1        0.2529
      5 O          63.2809   84.6368   16.5188 O.2     1  UNL1       -0.2696
      6 C          63.1229   87.1144   15.0173 C.ar    1  UNL1        0.0678
      7 C          63.2517   86.8417   16.4867 C.ar    1  UNL1        0.0162
      8 C          63.3209   87.9827   17.4579 C.ar    1  UNL1        0.0014
      9 C          63.2613   89.3963   16.9597 C.ar    1  UNL1        0.0014
     10 C          63.1325   89.6690   15.4904 C.ar    1  UNL1        0.0162
     11 C          63.0633   88.5280   14.5192 C.ar    1  UNL1        0.0679
     12 N          62.9368   89.0173   13.1069 N.am    1  UNL1       -0.2517
     13 C          62.8386   88.2140   11.8439 C.2     1  UNL1        0.2493
     14 O          62.7208   89.0066   10.5759 O.2     1  UNL1       -0.2727
     15 C          63.1109   83.2453   14.3313 C.ar    1  UNL1        0.0561
     16 C          64.2649   82.8060   13.4798 C.ar    1  UNL1        0.0047
     17 C          64.2217   81.4770   12.7856 C.ar    1  UNL1        0.0025
     18 C          63.0243   80.5873   12.9431 C.ar    1  UNL1        0.0296
     19 C          61.8703   81.0266   13.7945 C.ar    1  UNL1        0.1403
     20 F          60.6729   80.1369   13.9520 F       1  UNL1       -0.2042
     21 C          61.9135   82.3556   14.4887 C.ar    1  UNL1        0.0342
     22 C          61.3966   86.2207    9.5822 C.2     1  UNL1        0.2371
     23 O          60.1790   86.7214   10.3012 O.2     1  UNL1       -0.2737
     24 N          62.7284   86.2215   10.2723 N.am    1  UNL1       -0.2959
     25 H          63.5275   85.8929    9.8004 H       1  UNL1        0.1499
     26 C          61.2823   85.7194    8.1731 C.3     1  UNL1        0.1316
     27 C          62.4918   85.1800    7.4685 C.3     1  UNL1        0.0270
     28 C          59.1448   87.0174    7.4687 C.3     1  UNL1        0.0862
     29 N          59.9586   85.7573    7.4686 N.3     1  UNL1       -0.2902
     30 H          60.1379   85.5227    6.4922 H       1  UNL1        0.1237
     31 C          62.9042   90.5071   12.9348 C.3     1  UNL1        0.1278
     32 C          64.0795   91.2185   12.3325 C.ar    1  UNL1        0.0320
     33 C          64.0655   91.5932   10.8802 C.ar    1  UNL1        0.1363
     34 C          65.2408   92.3046   10.2779 C.ar    1  UNL1        0.0366
     35 C          66.4299   92.6413   11.1280 C.ar    1  UNL1        0.0031
     36 C          66.4438   92.2665   12.5804 C.ar    1  UNL1        0.0004
     37 C          67.6329   92.6032   13.4305 C.ar    1  UNL1        0.0067
     38 C          67.6467   92.2284   14.8828 C.ar    1  UNL1        0.0346
     39 BR         68.8359   92.5651   15.7329 Br      1  UNL1       -0.0490
     40 C          66.4715   91.5170   15.4851 C.ar    1  UNL1        0.0067
     41 C          65.2824   91.1804   14.6350 C.ar    1  UNL1        0.0003
     42 C          65.2686   91.5551   13.1827 C.ar    1  UNL1        0.0006
     43 O          62.8765   91.2566   10.0300 O.3     1  UNL1       -0.4717
     44 C          61.4063   91.1285   10.2984 C.3     1  UNL1        0.2525
@<TRIPOS>BOND
     1    28    29    1
     2    29    26    1
     3    26    27    1
     4    26    22    1
     5    22    23    2
     6    22    24   am
     7     1    24    1
     8     1     2    1
     9     2     3    1
    10     3     4   am
    11     4     5    2
    12     4    15    1
    13    15    16   ar
    14    16    17   ar
    15    17    18   ar
    16    18    19   ar
    17    19    20    1
    18    19    21   ar
    19     3     6    1
    20     6     7   ar
    21     7     8   ar
    22     8     9   ar
    23     9    10   ar
    24    10    11   ar
    25    11    12    1
    26    12    31    1
    27    31    32    1
    28    32    33   ar
    29    33    43    1
    30    43    44    1
    31    33    34   ar
    32    34    35   ar
    33    35    36   ar
    34    36    37   ar
    35    37    38   ar
    36    38    39    1
    37    38    40   ar
    38    40    41   ar
    39    41    42   ar
    40    12    13   am
    41    13    14    2
    42    13     1    1
    43    21    15   ar
    44    11     6   ar
    45    42    32   ar
    46    42    36   ar
    47    29    30    1
    48    24    25    1
@<TRIPOS>MOLECULE
*****
 44 48 0 0 0
SMALL
GASTEIGER

@<TRIPOS>ATOM
      1 C          61.7945   86.1526   10.9416 C.3     1  UNL1        0.1696
      2 C          62.5136   84.9932   11.5651 C.3     1  UNL1        0.1274
      3 N          63.4253   84.9894   12.7563 N.am    1  UNL1       -0.2518
      4 C          63.9945   83.6545   13.1358 C.2     1  UNL1        0.2529
      5 O          64.9181   83.5400   14.3123 O.2     1  UNL1       -0.2696
      6 C          63.8430   86.1438   13.6181 C.ar    1  UNL1        0.0678
      7 C          64.7710   85.7039   14.7114 C.ar    1  UNL1        0.0162
      8 C          65.3082   86.7076   15.6882 C.ar    1  UNL1        0.0014
      9 C          64.9174   88.1511   15.5717 C.ar    1  UNL1        0.0014
     10 C          63.9894   88.5910   14.4784 C.ar    1  UNL1        0.0162
     11 C          63.4522   87.5873   13.5016 C.ar    1  UNL1        0.0679
     12 N          62.5472   88.2328   12.4945 N.am    1  UNL1       -0.2517
     13 C          61.8094   87.5944   11.3552 C.2     1  UNL1        0.2493
     14 O          60.9764   88.5200   10.5190 O.2     1  UNL1       -0.2727
     15 C          63.6402   82.4340   12.3389 C.ar    1  UNL1        0.0561
     16 C          63.9113   82.3965   10.8642 C.ar    1  UNL1        0.0047
     17 C          63.5570   81.1762   10.0672 C.ar    1  UNL1        0.0025
     18 C          62.9317   79.9932   10.7452 C.ar    1  UNL1        0.0296
     19 C          62.6607   80.0307   12.2199 C.ar    1  UNL1        0.1403
     20 F          62.0353   78.8477   12.8979 F       1  UNL1       -0.2042
     21 C          63.0149   81.2511   13.0169 C.ar    1  UNL1        0.0342
     22 C          61.5856   85.6663    8.3980 C.2     1  UNL1        0.2371
     23 O          63.0687   85.8311    8.2448 O.2     1  UNL1       -0.2737
     24 N          60.9486   85.8271    9.7464 N.am    1  UNL1       -0.2959
     25 H          59.9752   85.7190    9.8470 H       1  UNL1        0.1499
     26 C          60.7397   85.3409    7.2028 C.3     1  UNL1        0.1316
     27 C          61.2784   84.4500    6.1229 C.3     1  UNL1        0.0270
     28 C          59.0411   87.2479    7.6802 C.3     1  UNL1        0.0862
     29 N          59.3551   85.9062    7.0876 N.3     1  UNL1       -0.2902
     30 H          59.1441   85.9675    6.0916 H       1  UNL1        0.1237
     31 C          62.3544   89.7126   12.6469 C.3     1  UNL1        0.1278
     32 C          63.3302   90.6645   12.0210 C.ar    1  UNL1        0.0320
     33 C          63.2695   90.9397   10.5478 C.ar    1  UNL1        0.1363
     34 C          64.2453   91.8916    9.9218 C.ar    1  UNL1        0.0366
     35 C          65.2817   92.5683   10.7692 C.ar    1  UNL1        0.0031
     36 C          65.3424   92.2930   12.2425 C.ar    1  UNL1        0.0004
     37 C          66.3788   92.9697   13.0898 C.ar    1  UNL1        0.0067
     38 C          66.4394   92.6944   14.5631 C.ar    1  UNL1        0.0346
     39 BR         67.4758   93.3710   15.4104 Br      1  UNL1       -0.0490
     40 C          65.4636   91.7425   15.1891 C.ar    1  UNL1        0.0067
     41 C          64.4273   91.0659   14.3416 C.ar    1  UNL1        0.0003
     42 C          64.3666   91.3411   12.8685 C.ar    1  UNL1        0.0006
     43 O          62.2331   90.2631    9.7004 O.3     1  UNL1       -0.4717
     44 C          60.7767   90.5100    9.4398 C.3     1  UNL1        0.2525
@<TRIPOS>BOND
     1    28    29    1
     2    29    26    1
     3    26    27    1
     4    26    22    1
     5    22    23    2
     6    22    24   am
     7     1    24    1
     8     1     2    1
     9     2     3    1
    10     3     4   am
    11     4     5    2
    12     4    15    1
    13    15    16   ar
    14    16    17   ar
    15    17    18   ar
    16    18    19   ar
    17    19    20    1
    18    19    21   ar
    19     3     6    1
    20     6     7   ar
    21     7     8   ar
    22     8     9   ar
    23     9    10   ar
    24    10    11   ar
    25    11    12    1
    26    12    31    1
    27    31    32    1
    28    32    33   ar
    29    33    43    1
    30    43    44    1
    31    33    34   ar
    32    34    35   ar
    33    35    36   ar
    34    36    37   ar
    35    37    38   ar
    36    38    39    1
    37    38    40   ar
    38    40    41   ar
    39    41    42   ar
    40    12    13   am
    41    13    14    2
    42    13     1    1
    43    21    15   ar
    44    11     6   ar
    45    42    32   ar
    46    42    36   ar
    47    29    30    1
    48    24    25    1
@<TRIPOS>MOLECULE
*****
 44 48 0 0 0
SMALL
GASTEIGER

@<TRIPOS>ATOM
      1 C          62.7085   86.3642   12.3522 C.3     1  UNL1        0.1696
      2 C          62.1256   86.9997   11.1248 C.3     1  UNL1        0.1274
      3 N          62.2765   88.4116   10.6414 N.am    1  UNL1       -0.2518
      4 C          61.5619   88.7422    9.3646 C.2     1  UNL1        0.2529
      5 O          61.6476   90.1268    8.7939 O.2     1  UNL1       -0.2696
      6 C          63.0475   89.5367   11.2657 C.ar    1  UNL1        0.0678
      7 C          62.9365   90.7936   10.4547 C.ar    1  UNL1        0.0162
      8 C          63.6360   92.0414   10.9057 C.ar    1  UNL1        0.0014
      9 C          64.4465   92.0324   12.1678 C.ar    1  UNL1        0.0014
     10 C          64.5576   90.7756   12.9789 C.ar    1  UNL1        0.0162
     11 C          63.8581   89.5277   12.5279 C.ar    1  UNL1        0.0679
     12 N          64.0978   88.3914   13.4773 N.am    1  UNL1       -0.2517
     13 C          63.5862   86.9835   13.3992 C.2     1  UNL1        0.2493
     14 O          64.0081   86.0748   14.5155 O.2     1  UNL1       -0.2727
     15 C          60.7615   87.6882    8.6585 C.ar    1  UNL1        0.0561
     16 C          59.2652   87.7837    8.6189 C.ar    1  UNL1        0.0047
     17 C          58.4647   86.7298    7.9129 C.ar    1  UNL1        0.0025
     18 C          59.1608   85.5803    7.2464 C.ar    1  UNL1        0.0296
     19 C          60.6572   85.4848    7.2860 C.ar    1  UNL1        0.1403
     20 F          61.3532   84.3353    6.6195 F       1  UNL1       -0.2042
     21 C          61.4576   86.5387    7.9921 C.ar    1  UNL1        0.0342
     22 C          63.0809   83.8594   11.7713 C.2     1  UNL1        0.2371
     23 O          64.1329   84.2469   10.7746 O.2     1  UNL1       -0.2737
     24 N          62.3688   84.9180   12.5601 N.am    1  UNL1       -0.2959
     25 H          61.6784   84.6637   13.2142 H       1  UNL1        0.1499
     26 C          62.7412   82.4133   11.9792 C.3     1  UNL1        0.1316
     27 C          63.0764   81.4044   10.9209 C.3     1  UNL1        0.0270
     28 C          62.0542   80.5251   13.6263 C.3     1  UNL1        0.0862
     29 N          62.0662   81.9759   13.2453 N.3     1  UNL1       -0.2902
     30 H          62.5199   82.4771   14.0091 H       1  UNL1        0.1237
     31 C          64.9636   88.7044   14.6615 C.3     1  UNL1        0.1278
     32 C          64.7693   89.9872   15.4145 C.ar    1  UNL1        0.0320
     33 C          63.4743   90.2517   16.1236 C.ar    1  UNL1        0.1363
     34 C          63.2800   91.5343   16.8767 C.ar    1  UNL1        0.0366
     35 C          64.3807   92.5524   16.9206 C.ar    1  UNL1        0.0031
     36 C          65.6758   92.2878   16.2115 C.ar    1  UNL1        0.0004
     37 C          66.7765   93.3059   16.2554 C.ar    1  UNL1        0.0067
     38 C          68.0715   93.0412   15.5463 C.ar    1  UNL1        0.0346
     39 BR         69.1723   94.0593   15.5902 Br      1  UNL1       -0.0490
     40 C          68.2659   91.7586   14.7932 C.ar    1  UNL1        0.0067
     41 C          67.1651   90.7406   14.7493 C.ar    1  UNL1        0.0003
     42 C          65.8701   91.0051   15.4584 C.ar    1  UNL1        0.0006
     43 O          62.3735   89.2337   16.0798 O.3     1  UNL1       -0.4717
     44 C          62.1201   87.9413   16.7977 C.3     1  UNL1        0.2525
@<TRIPOS>BOND
     1    28    29    1
     2    29    26    1
     3    26    27    1
     4    26    22    1
     5    22    23    2
     6    22    24   am
     7     1    24    1
     8     1     2    1
     9     2     3    1
    10     3     4   am
    11     4     5    2
    12     4    15    1
    13    15    16   ar
    14    16    17   ar
    15    17    18   ar
    16    18    19   ar
    17    19    20    1
    18    19    21   ar
    19     3     6    1
    20     6     7   ar
    21     7     8   ar
    22     8     9   ar
    23     9    10   ar
    24    10    11   ar
    25    11    12    1
    26    12    31    1
    27    31    32    1
    28    32    33   ar
    29    33    43    1
    30    43    44    1
    31    33    34   ar
    32    34    35   ar
    33    35    36   ar
    34    36    37   ar
    35    37    38   ar
    36    38    39    1
    37    38    40   ar
    38    40    41   ar
    39    41    42   ar
    40    12    13   am
    41    13    14    2
    42    13     1    1
    43    21    15   ar
    44    11     6   ar
    45    42    32   ar
    46    42    36   ar
    47    29    30    1
    48    24    25    1
@<TRIPOS>MOLECULE
*****
 44 48 0 0 0
SMALL
GASTEIGER

@<TRIPOS>ATOM
      1 C          63.0073   86.0407   12.2094 C.3     1  UNL1        0.1696
      2 C          62.8717   84.8853   13.1563 C.3     1  UNL1        0.1274
      3 N          62.8607   84.9018   14.6562 N.am    1  UNL1       -0.2518
      4 C          62.7076   83.5657   15.3206 C.2     1  UNL1        0.2529
      5 O          62.6842   83.4706   16.8174 O.2     1  UNL1       -0.2696
      6 C          62.9824   86.0776   15.5796 C.ar    1  UNL1        0.0678
      7 C          62.9233   85.6539   17.0172 C.ar    1  UNL1        0.0162
      8 C          63.0272   86.6800   18.1064 C.ar    1  UNL1        0.0014
      9 C          63.1901   88.1298   17.7579 C.ar    1  UNL1        0.0014
     10 C          63.2492   88.5535   16.3202 C.ar    1  UNL1        0.0162
     11 C          63.1453   87.5275   15.2311 C.ar    1  UNL1        0.0679
     12 N          63.2267   88.1595   13.8731 N.am    1  UNL1       -0.2517
     13 C          63.1653   87.4979   12.5283 C.2     1  UNL1        0.2493
     14 O          63.2766   88.4146   11.3463 O.2     1  UNL1       -0.2727
     15 C          62.5778   82.3246   14.4881 C.ar    1  UNL1        0.0561
     16 C          63.6882   81.9223   13.5635 C.ar    1  UNL1        0.0047
     17 C          63.5586   80.6812   12.7311 C.ar    1  UNL1        0.0025
     18 C          62.3184   79.8425   12.8234 C.ar    1  UNL1        0.0296
     19 C          61.2080   80.2448   13.7480 C.ar    1  UNL1        0.1403
     20 F          59.9678   79.4061   13.8403 F       1  UNL1       -0.2042
     21 C          61.3377   81.4859   14.5804 C.ar    1  UNL1        0.0342
     22 C          61.7707   86.0123    9.9246 C.2     1  UNL1        0.2371
     23 O          60.5857   86.6795   10.5577 O.2     1  UNL1       -0.2737
     24 N          62.9815   85.6929   10.7505 N.am    1  UNL1       -0.2959
     25 H          63.7592   85.2551   10.3350 H       1  UNL1        0.1499
     26 C          61.7449   85.6645    8.4657 C.3     1  UNL1        0.1316
     27 C          60.5396   85.9965    7.6368 C.3     1  UNL1        0.0270
     28 C          62.8314   84.4721    6.4292 C.3     1  UNL1        0.0862
     29 N          62.9243   84.9848    7.8358 N.3     1  UNL1       -0.2902
     30 H          63.6945   85.6533    7.8552 H       1  UNL1        0.1237
     31 C          63.3913   89.6504   13.8580 C.3     1  UNL1        0.1278
     32 C          63.2275   90.4101   12.5750 C.ar    1  UNL1        0.0320
     33 C          61.9294   90.3463   11.8263 C.ar    1  UNL1        0.1363
     34 C          61.7655   91.1061   10.5433 C.ar    1  UNL1        0.0366
     35 C          62.8998   91.9295   10.0092 C.ar    1  UNL1        0.0031
     36 C          64.1980   91.9933   10.7580 C.ar    1  UNL1        0.0004
     37 C          65.3323   92.8168   10.2239 C.ar    1  UNL1        0.0067
     38 C          66.6303   92.8805   10.9728 C.ar    1  UNL1        0.0346
     39 BR         67.7646   93.7040   10.4387 Br      1  UNL1       -0.0490
     40 C          66.7942   92.1208   12.2558 C.ar    1  UNL1        0.0067
     41 C          65.6599   91.2973   12.7898 C.ar    1  UNL1        0.0003
     42 C          64.3618   91.2336   12.0410 C.ar    1  UNL1        0.0006
     43 O          60.7950   89.5229   12.3603 O.3     1  UNL1       -0.4717
     44 C          59.3094   89.5373   12.1539 C.3     1  UNL1        0.2525
@<TRIPOS>BOND
     1    28    29    1
     2    29    26    1
     3    26    27    1
     4    26    22    1
     5    22    23    2
     6    22    24   am
     7     1    24    1
     8     1     2    1
     9     2     3    1
    10     3     4   am
    11     4     5    2
    12     4    15    1
    13    15    16   ar
    14    16    17   ar
    15    17    18   ar
    16    18    19   ar
    17    19    20    1
    18    19    21   ar
    19     3     6    1
    20     6     7   ar
    21     7     8   ar
    22     8     9   ar
    23     9    10   ar
    24    10    11   ar
    25    11    12    1
    26    12    31    1
    27    31    32    1
    28    32    33   ar
    29    33    43    1
    30    43    44    1
    31    33    34   ar
    32    34    35   ar
    33    35    36   ar
    34    36    37   ar
    35    37    38   ar
    36    38    39    1
    37    38    40   ar
    38    40    41   ar
    39    41    42   ar
    40    12    13   am
    41    13    14    2
    42    13     1    1
    43    21    15   ar
    44    11     6   ar
    45    42    32   ar
    46    42    36   ar
    47    29    30    1
    48    24    25    1
