@<TRIPOS>MOLECULE
*****
 37 40 0 0 0
SMALL
GASTEIGER

@<TRIPOS>ATOM
      1 C          62.4500   82.6552   14.5243 C.ar    1  UNL1        0.2251
      2 C          62.9156   83.6001   15.5922 C.ar    1  UNL1        0.0590
      3 C          63.4142   84.9651   15.2205 C.ar    1  UNL1        0.0212
      4 C          63.4470   85.3853   13.7810 C.ar    1  UNL1        0.0732
      5 C          62.9814   84.4405   12.7130 C.ar    1  UNL1        0.1509
      6 N          62.4829   83.0754   13.0847 N.ar    1  UNL1       -0.2058
      7 N          63.9455   86.7504   13.4093 N.am    1  UNL1       -0.2791
      8 C          63.8972   87.8651   14.4118 C.2     1  UNL1        0.2495
      9 O          63.3503   87.6148   15.7860 O.2     1  UNL1       -0.2698
     10 H          64.3045   86.9146   12.5074 H       1  UNL1        0.1552
     11 C          64.3957   89.2302   14.0401 C.ar    1  UNL1        0.0537
     12 C          65.3729   89.9396   14.9298 C.ar    1  UNL1        0.0044
     13 C          65.8714   91.3047   14.5581 C.ar    1  UNL1        0.0009
     14 C          65.3927   91.9603   13.2968 C.ar    1  UNL1        0.0366
     15 C          64.4154   91.2508   12.4070 C.ar    1  UNL1        0.0010
     16 C          63.9367   91.9063   11.1457 C.ar    1  UNL1       -0.0002
     17 C          62.9595   91.1968   10.2560 C.ar    1  UNL1       -0.0000
     18 C          62.4609   89.8318   10.6277 C.ar    1  UNL1        0.0000
     19 C          62.9397   89.1762   11.8890 C.ar    1  UNL1        0.0001
     20 C          63.9169   89.8857   12.7787 C.ar    1  UNL1        0.0042
     21 C          65.8912   93.3253   12.9251 C.3     1  UNL1        0.2826
     22 S          66.6996   93.5141   11.6758 S.O     1  UNL1        0.0405
     23 C          66.5023   94.7389   10.8327 C.3     1  UNL1        0.3201
     24 O          67.7054   92.4780   11.2695 O.co2   1  UNL1       -0.6809
     25 C          63.0142   84.8607   11.2735 C.2     1  UNL1        0.2649
     26 O          63.8512   84.0992   10.2888 O.2     1  UNL1       -0.2684
     27 N          62.2101   86.0423   10.8186 N.am    1  UNL1       -0.2996
     28 H          61.6608   86.5421   11.4649 H       1  UNL1        0.1498
     29 C          62.2430   86.4626    9.3790 C.3     1  UNL1        0.0899
     30 C          61.0126   87.0293    8.7349 C.3     1  UNL1        0.0246
     31 C          60.7765   88.5106    8.7425 C.3     1  UNL1        0.0338
     32 C          59.5461   89.0773    8.0984 C.3     1  UNL1        0.1422
     33 O          58.5517   88.1628    7.4466 O.3     1  UNL1       -0.3538
     34 C          58.7878   86.6815    7.4390 C.3     1  UNL1        0.1422
     35 C          60.0182   86.1148    8.0832 C.3     1  UNL1        0.0338
     36 C          60.8040   80.6810   14.1462 C.3     1  UNL1        0.2542
     37 O          61.9515   81.2902   14.8960 O.3     1  UNL1       -0.4561
@<TRIPOS>UNITY_ATOM_ATTR
22 1
charge 1
24 1
charge -1
@<TRIPOS>BOND
     1    36    37    1
     2    37     1    1
     3     1     2   ar
     4     2     3   ar
     5     3     4   ar
     6     4     7    1
     7     7     8   am
     8     8     9    2
     9     8    11    1
    10    11    12   ar
    11    12    13   ar
    12    13    14   ar
    13    14    21    1
    14    21    22    1
    15    22    23    1
    16    22    24    2
    17    14    15   ar
    18    15    16   ar
    19    16    17   ar
    20    17    18   ar
    21    18    19   ar
    22    19    20   ar
    23     4     5   ar
    24     5    25    1
    25    25    26    2
    26    25    27   am
    27    27    29    1
    28    29    30    1
    29    30    31    1
    30    31    32    1
    31    32    33    1
    32    33    34    1
    33    34    35    1
    34     5     6   ar
    35     6     1   ar
    36    20    11   ar
    37    35    30    1
    38    20    15   ar
    39     7    10    1
    40    27    28    1
@<TRIPOS>MOLECULE
*****
 37 40 0 0 0
SMALL
GASTEIGER

@<TRIPOS>ATOM
      1 C          59.7946   87.4177    8.8716 C.ar    1  UNL1        0.2251
      2 C          59.8075   88.9090    9.0322 C.ar    1  UNL1        0.0590
      3 C          60.6915   89.5447   10.0639 C.ar    1  UNL1        0.0212
      4 C          61.5627   88.6891   10.9350 C.ar    1  UNL1        0.0732
      5 C          61.5499   87.1977   10.7745 C.ar    1  UNL1        0.1509
      6 N          60.6659   86.5620    9.7428 N.ar    1  UNL1       -0.2058
      7 N          62.4468   89.3248   11.9667 N.am    1  UNL1       -0.2791
      8 C          63.3961   90.4166   11.5709 C.2     1  UNL1        0.2495
      9 O          63.4614   90.8728   10.1434 O.2     1  UNL1       -0.2698
     10 H          62.4039   89.0254   12.9036 H       1  UNL1        0.1552
     11 C          64.2801   91.0522   12.6026 C.ar    1  UNL1        0.0537
     12 C          64.4386   90.4138   13.9507 C.ar    1  UNL1        0.0044
     13 C          65.3226   91.0495   14.9824 C.ar    1  UNL1        0.0009
     14 C          66.0482   92.3236   14.6660 C.ar    1  UNL1        0.0366
     15 C          65.8898   92.9621   13.3179 C.ar    1  UNL1        0.0010
     16 C          66.6155   94.2362   13.0015 C.ar    1  UNL1       -0.0002
     17 C          66.4570   94.8746   11.6535 C.ar    1  UNL1       -0.0000
     18 C          65.5730   94.2389   10.6218 C.ar    1  UNL1        0.0000
     19 C          64.8474   92.9648   10.9382 C.ar    1  UNL1        0.0001
     20 C          65.0058   92.3264   12.2862 C.ar    1  UNL1        0.0042
     21 C          66.9323   92.9593   15.6977 C.3     1  UNL1        0.2826
     22 S          68.3944   93.1462   15.4201 S.O     1  UNL1        0.0405
     23 C          69.1730   94.1867   16.1692 C.3     1  UNL1        0.3201
     24 O          69.0780   92.2927   14.3932 O.co2   1  UNL1       -0.6809
     25 C          62.4211   86.3421   11.6456 C.2     1  UNL1        0.2649
     26 O          63.1579   86.9532   12.8004 O.2     1  UNL1       -0.2684
     27 N          62.5554   84.8753   11.3619 N.am    1  UNL1       -0.2996
     28 H          62.0718   84.4742   10.6040 H       1  UNL1        0.1498
     29 C          63.4266   84.0196   12.2331 C.3     1  UNL1        0.0899
     30 C          62.9626   82.6550   12.6482 C.3     1  UNL1        0.0246
     31 C          62.2606   82.4685   13.9606 C.3     1  UNL1        0.0338
     32 C          61.7965   81.1039   14.3757 C.3     1  UNL1        0.1422
     33 O          62.0344   79.9256   13.4783 O.3     1  UNL1       -0.3538
     34 C          62.7364   80.1121   12.1659 C.3     1  UNL1        0.1422
     35 C          63.2005   81.4768   11.7508 C.3     1  UNL1        0.0338
     36 C          59.4383   85.6703    6.9823 C.3     1  UNL1        0.2542
     37 O          58.9106   86.7820    7.8399 O.3     1  UNL1       -0.4561
@<TRIPOS>UNITY_ATOM_ATTR
22 1
charge 1
24 1
charge -1
@<TRIPOS>BOND
     1    36    37    1
     2    37     1    1
     3     1     2   ar
     4     2     3   ar
     5     3     4   ar
     6     4     7    1
     7     7     8   am
     8     8     9    2
     9     8    11    1
    10    11    12   ar
    11    12    13   ar
    12    13    14   ar
    13    14    21    1
    14    21    22    1
    15    22    23    1
    16    22    24    2
    17    14    15   ar
    18    15    16   ar
    19    16    17   ar
    20    17    18   ar
    21    18    19   ar
    22    19    20   ar
    23     4     5   ar
    24     5    25    1
    25    25    26    2
    26    25    27   am
    27    27    29    1
    28    29    30    1
    29    30    31    1
    30    31    32    1
    31    32    33    1
    32    33    34    1
    33    34    35    1
    34     5     6   ar
    35     6     1   ar
    36    20    11   ar
    37    35    30    1
    38    20    15   ar
    39     7    10    1
    40    27    28    1
@<TRIPOS>MOLECULE
*****
 37 40 0 0 0
SMALL
GASTEIGER

@<TRIPOS>ATOM
      1 C          59.8515   87.5740    8.7014 C.ar    1  UNL1        0.2251
      2 C          60.0293   89.0626    8.6508 C.ar    1  UNL1        0.0590
      3 C          61.0000   89.7339    9.5766 C.ar    1  UNL1        0.0212
      4 C          61.7929   88.9166   10.5530 C.ar    1  UNL1        0.0732
      5 C          61.6151   87.4280   10.6036 C.ar    1  UNL1        0.1509
      6 N          60.6444   86.7567    9.6779 N.ar    1  UNL1       -0.2058
      7 N          62.7637   89.5879   11.4787 N.am    1  UNL1       -0.2791
      8 C          63.4261   90.8700   11.0697 C.2     1  UNL1        0.2495
      9 O          63.1178   91.4809    9.7348 O.2     1  UNL1       -0.2698
     10 H          62.9660   89.1870   12.3548 H       1  UNL1        0.1552
     11 C          64.3968   91.5413   11.9954 C.ar    1  UNL1        0.0537
     12 C          65.4709   92.4292   11.4406 C.ar    1  UNL1        0.0044
     13 C          66.4417   93.1005   12.3663 C.ar    1  UNL1        0.0009
     14 C          66.3383   92.8839   13.8470 C.ar    1  UNL1        0.0366
     15 C          65.2642   91.9959   14.4019 C.ar    1  UNL1        0.0010
     16 C          65.1608   91.7794   15.8826 C.ar    1  UNL1       -0.0002
     17 C          64.0867   90.8915   16.4374 C.ar    1  UNL1       -0.0000
     18 C          63.1160   90.2202   15.5117 C.ar    1  UNL1        0.0000
     19 C          63.2193   90.4368   14.0310 C.ar    1  UNL1        0.0001
     20 C          64.2934   91.3247   13.4762 C.ar    1  UNL1        0.0042
     21 C          67.3091   93.5552   14.7727 C.3     1  UNL1        0.2826
     22 S          68.5784   92.8576   15.1627 S.O     1  UNL1        0.0405
     23 C          68.7180   92.2654   16.5338 C.3     1  UNL1        0.3201
     24 O          69.7083   92.7523   14.1816 O.co2   1  UNL1       -0.6809
     25 C          62.4080   86.6108   11.5800 C.2     1  UNL1        0.2649
     26 O          63.1956   87.2898   12.6610 O.2     1  UNL1       -0.2684
     27 N          62.4134   85.1145   11.4753 N.am    1  UNL1       -0.2996
     28 H          61.8965   84.6688   10.7658 H       1  UNL1        0.1498
     29 C          63.2063   84.2971   12.4518 C.3     1  UNL1        0.0899
     30 C          62.8221   82.8730   12.7238 C.3     1  UNL1        0.0246
     31 C          62.1144   82.5173   13.9976 C.3     1  UNL1        0.0338
     32 C          61.7302   81.0931   14.2697 C.3     1  UNL1        0.1422
     33 O          62.0537   80.0245   13.2680 O.3     1  UNL1       -0.3538
     34 C          62.7615   80.3802   11.9941 C.3     1  UNL1        0.1422
     35 C          63.1457   81.8044   11.7221 C.3     1  UNL1        0.0338
     36 C          59.2687   85.6362    7.0720 C.3     1  UNL1        0.2542
     37 O          58.8807   86.9028    7.7757 O.3     1  UNL1       -0.4561
@<TRIPOS>UNITY_ATOM_ATTR
22 1
charge 1
24 1
charge -1
@<TRIPOS>BOND
     1    36    37    1
     2    37     1    1
     3     1     2   ar
     4     2     3   ar
     5     3     4   ar
     6     4     7    1
     7     7     8   am
     8     8     9    2
     9     8    11    1
    10    11    12   ar
    11    12    13   ar
    12    13    14   ar
    13    14    21    1
    14    21    22    1
    15    22    23    1
    16    22    24    2
    17    14    15   ar
    18    15    16   ar
    19    16    17   ar
    20    17    18   ar
    21    18    19   ar
    22    19    20   ar
    23     4     5   ar
    24     5    25    1
    25    25    26    2
    26    25    27   am
    27    27    29    1
    28    29    30    1
    29    30    31    1
    30    31    32    1
    31    32    33    1
    32    33    34    1
    33    34    35    1
    34     5     6   ar
    35     6     1   ar
    36    20    11   ar
    37    35    30    1
    38    20    15   ar
    39     7    10    1
    40    27    28    1
@<TRIPOS>MOLECULE
*****
 37 40 0 0 0
SMALL
GASTEIGER

@<TRIPOS>ATOM
      1 C          64.8477   91.1717   13.5017 C.ar    1  UNL1        0.2251
      2 C          65.1906   90.1902   14.5829 C.ar    1  UNL1        0.0590
      3 C          64.5940   88.8141   14.5634 C.ar    1  UNL1        0.0212
      4 C          63.6545   88.4195   13.4626 C.ar    1  UNL1        0.0732
      5 C          63.3116   89.4010   12.3814 C.ar    1  UNL1        0.1509
      6 N          63.9082   90.7771   12.4009 N.ar    1  UNL1       -0.2058
      7 N          63.0579   87.0434   13.4431 N.am    1  UNL1       -0.2791
      8 C          63.8090   85.8917   14.0426 C.2     1  UNL1        0.2495
      9 O          65.1568   86.1161   14.6616 O.2     1  UNL1       -0.2698
     10 H          62.1733   86.8961   13.0369 H       1  UNL1        0.1552
     11 C          63.2124   84.5156   14.0231 C.ar    1  UNL1        0.0537
     12 C          62.4220   84.0240   15.1993 C.ar    1  UNL1        0.0044
     13 C          61.8254   82.6479   15.1798 C.ar    1  UNL1        0.0009
     14 C          62.0191   81.7634   13.9840 C.ar    1  UNL1        0.0366
     15 C          62.8095   82.2549   12.8076 C.ar    1  UNL1        0.0010
     16 C          63.0032   81.3704   11.6118 C.ar    1  UNL1       -0.0002
     17 C          63.7936   81.8619   10.4356 C.ar    1  UNL1       -0.0000
     18 C          64.3902   83.2380   10.4551 C.ar    1  UNL1        0.0000
     19 C          64.1965   84.1226   11.6509 C.ar    1  UNL1        0.0001
     20 C          63.4061   83.6310   12.8272 C.ar    1  UNL1        0.0042
     21 C          61.4225   80.3873   13.9645 C.3     1  UNL1        0.2826
     22 S          59.9399   80.2105   14.1079 S.O     1  UNL1        0.0405
     23 C          59.3794   78.8818   14.5206 C.3     1  UNL1        0.3201
     24 O          59.0177   81.3625   13.8386 O.co2   1  UNL1       -0.6809
     25 C          62.3721   89.0064   11.2807 C.2     1  UNL1        0.2649
     26 O          62.4396   89.6999    9.9523 O.2     1  UNL1       -0.2684
     27 N          61.3650   87.9183   11.5083 N.am    1  UNL1       -0.2996
     28 H          61.3207   87.4632   12.3801 H       1  UNL1        0.1498
     29 C          60.4255   87.5237   10.4076 C.3     1  UNL1        0.0899
     30 C          60.9182   86.6854    9.2655 C.3     1  UNL1        0.0246
     31 C          62.3208   86.1539    9.2757 C.3     1  UNL1        0.0338
     32 C          62.8136   85.3156    8.1336 C.3     1  UNL1        0.1422
     33 O          61.9036   85.0088    6.9812 O.3     1  UNL1       -0.3538
     34 C          60.5010   85.5403    6.9710 C.3     1  UNL1        0.1422
     35 C          60.0083   86.3786    8.1131 C.3     1  UNL1        0.0338
     36 C          66.1203   93.0896   12.2967 C.3     1  UNL1        0.2542
     37 O          65.4443   92.5478   13.5212 O.3     1  UNL1       -0.4561
@<TRIPOS>UNITY_ATOM_ATTR
22 1
charge 1
24 1
charge -1
@<TRIPOS>BOND
     1    36    37    1
     2    37     1    1
     3     1     2   ar
     4     2     3   ar
     5     3     4   ar
     6     4     7    1
     7     7     8   am
     8     8     9    2
     9     8    11    1
    10    11    12   ar
    11    12    13   ar
    12    13    14   ar
    13    14    21    1
    14    21    22    1
    15    22    23    1
    16    22    24    2
    17    14    15   ar
    18    15    16   ar
    19    16    17   ar
    20    17    18   ar
    21    18    19   ar
    22    19    20   ar
    23     4     5   ar
    24     5    25    1
    25    25    26    2
    26    25    27   am
    27    27    29    1
    28    29    30    1
    29    30    31    1
    30    31    32    1
    31    32    33    1
    32    33    34    1
    33    34    35    1
    34     5     6   ar
    35     6     1   ar
    36    20    11   ar
    37    35    30    1
    38    20    15   ar
    39     7    10    1
    40    27    28    1
@<TRIPOS>MOLECULE
*****
 37 40 0 0 0
SMALL
GASTEIGER

@<TRIPOS>ATOM
      1 C          59.7691   87.5693    8.6626 C.ar    1  UNL1        0.2251
      2 C          59.8966   89.0639    8.6653 C.ar    1  UNL1        0.0590
      3 C          60.8686   89.7321    9.5919 C.ar    1  UNL1        0.0212
      4 C          61.7132   88.9057   10.5159 C.ar    1  UNL1        0.0732
      5 C          61.5857   87.4111   10.5133 C.ar    1  UNL1        0.1509
      6 N          60.6137   86.7429    9.5867 N.ar    1  UNL1       -0.2058
      7 N          62.6852   89.5739   11.4426 N.am    1  UNL1       -0.2791
      8 C          63.3719   90.8399   11.0235 C.2     1  UNL1        0.2495
      9 O          63.0865   91.4378    9.6776 O.2     1  UNL1       -0.2698
     10 H          62.8725   89.1815   12.3259 H       1  UNL1        0.1552
     11 C          64.3439   91.5081   11.9501 C.ar    1  UNL1        0.0537
     12 C          65.4110   92.4058   11.3975 C.ar    1  UNL1        0.0044
     13 C          66.3830   93.0740   12.3241 C.ar    1  UNL1        0.0009
     14 C          66.2880   92.8445   13.8034 C.ar    1  UNL1        0.0366
     15 C          65.2209   91.9467   14.3561 C.ar    1  UNL1        0.0010
     16 C          65.1259   91.7171   15.8353 C.ar    1  UNL1       -0.0002
     17 C          64.0588   90.8194   16.3879 C.ar    1  UNL1       -0.0000
     18 C          63.0868   90.1512   15.4613 C.ar    1  UNL1        0.0000
     19 C          63.1818   90.3808   13.9820 C.ar    1  UNL1        0.0001
     20 C          64.2489   91.2785   13.4294 C.ar    1  UNL1        0.0042
     21 C          67.2600   93.5126   14.7300 C.3     1  UNL1        0.2826
     22 S          68.5205   92.8057   15.1317 S.O     1  UNL1        0.0405
     23 C          68.7108   92.3602   16.5513 C.3     1  UNL1        0.3201
     24 O          69.5907   92.5441   14.1137 O.co2   1  UNL1       -0.6809
     25 C          62.4303   86.5847   11.4373 C.2     1  UNL1        0.2649
     26 O          63.1648   87.2398   12.5693 O.2     1  UNL1       -0.2684
     27 N          62.5403   85.1033   11.2294 N.am    1  UNL1       -0.2996
     28 H          62.0581   84.6734   10.4864 H       1  UNL1        0.1498
     29 C          63.3848   84.2769   12.1534 C.3     1  UNL1        0.0899
     30 C          63.4104   84.5832   13.6216 C.3     1  UNL1        0.0246
     31 C          64.6029   85.2642   14.2250 C.3     1  UNL1        0.0338
     32 C          64.6285   85.5705   15.6931 C.3     1  UNL1        0.1422
     33 O          63.4614   85.1959   16.5579 O.3     1  UNL1       -0.3538
     34 C          62.2689   84.5149   15.9545 C.3     1  UNL1        0.1422
     35 C          62.2434   84.2086   14.4862 C.3     1  UNL1        0.0338
     36 C          59.2180   85.6947    6.9503 C.3     1  UNL1        0.2542
     37 O          58.7971   86.9011    7.7360 O.3     1  UNL1       -0.4561
@<TRIPOS>UNITY_ATOM_ATTR
22 1
charge 1
24 1
charge -1
@<TRIPOS>BOND
     1    36    37    1
     2    37     1    1
     3     1     2   ar
     4     2     3   ar
     5     3     4   ar
     6     4     7    1
     7     7     8   am
     8     8     9    2
     9     8    11    1
    10    11    12   ar
    11    12    13   ar
    12    13    14   ar
    13    14    21    1
    14    21    22    1
    15    22    23    1
    16    22    24    2
    17    14    15   ar
    18    15    16   ar
    19    16    17   ar
    20    17    18   ar
    21    18    19   ar
    22    19    20   ar
    23     4     5   ar
    24     5    25    1
    25    25    26    2
    26    25    27   am
    27    27    29    1
    28    29    30    1
    29    30    31    1
    30    31    32    1
    31    32    33    1
    32    33    34    1
    33    34    35    1
    34     5     6   ar
    35     6     1   ar
    36    20    11   ar
    37    35    30    1
    38    20    15   ar
    39     7    10    1
    40    27    28    1
@<TRIPOS>MOLECULE
*****
 37 40 0 0 0
SMALL
GASTEIGER

@<TRIPOS>ATOM
      1 C          62.8704   79.9178   11.4206 C.ar    1  UNL1        0.2251
      2 C          63.1509   80.7501   10.2047 C.ar    1  UNL1        0.0590
      3 C          63.2696   82.2404   10.3269 C.ar    1  UNL1        0.0212
      4 C          63.1077   82.8984   11.6651 C.ar    1  UNL1        0.0732
      5 C          62.8272   82.0661   12.8811 C.ar    1  UNL1        0.1509
      6 N          62.7086   80.5758   12.7589 N.ar    1  UNL1       -0.2058
      7 N          63.2264   84.3887   11.7873 N.am    1  UNL1       -0.2791
      8 C          62.2828   85.2803   11.0360 C.2     1  UNL1        0.2495
      9 O          61.2206   84.6816   10.1622 O.2     1  UNL1       -0.2698
     10 H          63.9235   84.7816   12.3608 H       1  UNL1        0.1552
     11 C          62.4015   86.7706   11.1582 C.ar    1  UNL1        0.0537
     12 C          63.2838   87.3687   12.2135 C.ar    1  UNL1        0.0044
     13 C          63.4024   88.8590   12.3358 C.ar    1  UNL1        0.0009
     14 C          62.6388   89.7512   11.4027 C.ar    1  UNL1        0.0366
     15 C          61.7564   89.1531   10.3473 C.ar    1  UNL1        0.0010
     16 C          60.9927   90.0453    9.4142 C.ar    1  UNL1       -0.0002
     17 C          60.1104   89.4473    8.3589 C.ar    1  UNL1       -0.0000
     18 C          59.9917   87.9570    8.2366 C.ar    1  UNL1        0.0000
     19 C          60.7554   87.0647    9.1697 C.ar    1  UNL1        0.0001
     20 C          61.6377   87.6628   10.2250 C.ar    1  UNL1        0.0042
     21 C          62.7574   91.2415   11.5249 C.3     1  UNL1        0.2826
     22 S          64.0739   91.8618   11.8882 S.O     1  UNL1        0.0405
     23 C          65.0011   92.3389   10.8100 C.3     1  UNL1        0.3201
     24 O          64.4632   92.0049   13.3298 O.co2   1  UNL1       -0.6809
     25 C          62.6654   82.7241   14.2193 C.2     1  UNL1        0.2649
     26 O          61.3832   82.5677   14.9818 O.2     1  UNL1       -0.2684
     27 N          63.7858   83.5384   14.7950 N.am    1  UNL1       -0.2996
     28 H          64.6274   83.6411   14.2945 H       1  UNL1        0.1498
     29 C          63.6240   84.1965   16.1333 C.3     1  UNL1        0.0899
     30 C          63.5899   85.6927   16.2341 C.3     1  UNL1        0.0246
     31 C          64.3000   86.5297   15.2118 C.3     1  UNL1        0.0338
     32 C          64.2660   88.0258   15.3126 C.3     1  UNL1        0.1422
     33 O          63.5218   88.6851   16.4358 O.3     1  UNL1       -0.3538
     34 C          62.8116   87.8481   17.4582 C.3     1  UNL1        0.1422
     35 C          62.8457   86.3519   17.3573 C.3     1  UNL1        0.0338
     36 C          63.0930   77.7516   10.0035 C.3     1  UNL1        0.2542
     37 O          62.7518   78.4275   11.2984 O.3     1  UNL1       -0.4561
@<TRIPOS>UNITY_ATOM_ATTR
22 1
charge 1
24 1
charge -1
@<TRIPOS>BOND
     1    36    37    1
     2    37     1    1
     3     1     2   ar
     4     2     3   ar
     5     3     4   ar
     6     4     7    1
     7     7     8   am
     8     8     9    2
     9     8    11    1
    10    11    12   ar
    11    12    13   ar
    12    13    14   ar
    13    14    21    1
    14    21    22    1
    15    22    23    1
    16    22    24    2
    17    14    15   ar
    18    15    16   ar
    19    16    17   ar
    20    17    18   ar
    21    18    19   ar
    22    19    20   ar
    23     4     5   ar
    24     5    25    1
    25    25    26    2
    26    25    27   am
    27    27    29    1
    28    29    30    1
    29    30    31    1
    30    31    32    1
    31    32    33    1
    32    33    34    1
    33    34    35    1
    34     5     6   ar
    35     6     1   ar
    36    20    11   ar
    37    35    30    1
    38    20    15   ar
    39     7    10    1
    40    27    28    1
@<TRIPOS>MOLECULE
*****
 37 40 0 0 0
SMALL
GASTEIGER

@<TRIPOS>ATOM
      1 C          63.0547   80.6935   12.1489 C.ar    1  UNL1        0.2251
      2 C          63.4214   81.0296   13.5640 C.ar    1  UNL1        0.0590
      3 C          63.8337   82.4271   13.9203 C.ar    1  UNL1        0.0212
      4 C          63.8794   83.4885   12.8614 C.ar    1  UNL1        0.0732
      5 C          63.5128   83.1524   11.4462 C.ar    1  UNL1        0.1509
      6 N          63.1005   81.7549   11.0900 N.ar    1  UNL1       -0.2058
      7 N          64.2918   84.8861   13.2176 N.am    1  UNL1       -0.2791
      8 C          63.2741   85.9879   13.2309 C.2     1  UNL1        0.2495
      9 O          61.8440   85.6923   12.8880 O.2     1  UNL1       -0.2698
     10 H          65.2304   85.0801   13.4426 H       1  UNL1        0.1552
     11 C          63.6865   87.3854   13.5871 C.ar    1  UNL1        0.0537
     12 C          64.4073   87.6493   14.8758 C.ar    1  UNL1        0.0044
     13 C          64.8196   89.0468   15.2321 C.ar    1  UNL1        0.0009
     14 C          64.5112   90.1805   14.2996 C.ar    1  UNL1        0.0366
     15 C          63.7903   89.9167   13.0108 C.ar    1  UNL1        0.0010
     16 C          63.4819   91.0504   12.0783 C.ar    1  UNL1       -0.0002
     17 C          62.7611   90.7865   10.7896 C.ar    1  UNL1       -0.0000
     18 C          62.3487   89.3890   10.4334 C.ar    1  UNL1        0.0000
     19 C          62.6572   88.2553   11.3659 C.ar    1  UNL1        0.0001
     20 C          63.3780   88.5192   12.6546 C.ar    1  UNL1        0.0042
     21 C          64.9235   91.5780   14.6558 C.3     1  UNL1        0.2826
     22 S          66.1742   92.1633   14.0700 S.O     1  UNL1        0.0405
     23 C          67.4007   91.3131   13.9187 C.3     1  UNL1        0.3201
     24 O          66.1984   93.5988   13.6355 O.co2   1  UNL1       -0.6809
     25 C          63.5585   84.2138   10.3873 C.2     1  UNL1        0.2649
     26 O          64.8391   84.4894    9.6564 O.2     1  UNL1       -0.2684
     27 N          62.3237   84.9997   10.0594 N.am    1  UNL1       -0.2996
     28 H          61.4832   84.8188   10.5391 H       1  UNL1        0.1498
     29 C          62.3694   86.0612    9.0004 C.3     1  UNL1        0.0899
     30 C          61.0965   86.6788    8.5022 C.3     1  UNL1        0.0246
     31 C          60.8958   88.1623    8.5961 C.3     1  UNL1        0.0338
     32 C          59.6229   88.7800    8.0979 C.3     1  UNL1        0.1422
     33 O          58.5506   87.9141    7.5058 O.3     1  UNL1       -0.3538
     34 C          58.7513   86.4305    7.4119 C.3     1  UNL1        0.1422
     35 C          60.0243   85.8129    7.9102 C.3     1  UNL1        0.0338
     36 C          62.8399   78.7890   10.3949 C.3     1  UNL1        0.2542
     37 O          62.6424   79.2959   11.7927 O.3     1  UNL1       -0.4561
@<TRIPOS>UNITY_ATOM_ATTR
22 1
charge 1
24 1
charge -1
@<TRIPOS>BOND
     1    36    37    1
     2    37     1    1
     3     1     2   ar
     4     2     3   ar
     5     3     4   ar
     6     4     7    1
     7     7     8   am
     8     8     9    2
     9     8    11    1
    10    11    12   ar
    11    12    13   ar
    12    13    14   ar
    13    14    21    1
    14    21    22    1
    15    22    23    1
    16    22    24    2
    17    14    15   ar
    18    15    16   ar
    19    16    17   ar
    20    17    18   ar
    21    18    19   ar
    22    19    20   ar
    23     4     5   ar
    24     5    25    1
    25    25    26    2
    26    25    27   am
    27    27    29    1
    28    29    30    1
    29    30    31    1
    30    31    32    1
    31    32    33    1
    32    33    34    1
    33    34    35    1
    34     5     6   ar
    35     6     1   ar
    36    20    11   ar
    37    35    30    1
    38    20    15   ar
    39     7    10    1
    40    27    28    1
@<TRIPOS>MOLECULE
*****
 37 40 0 0 0
SMALL
GASTEIGER

@<TRIPOS>ATOM
      1 C          63.0965   80.5629   10.3984 C.ar    1  UNL1        0.2251
      2 C          63.6893   81.6126    9.5059 C.ar    1  UNL1        0.0590
      3 C          64.0282   82.9645   10.0605 C.ar    1  UNL1        0.0212
      4 C          63.7742   83.2666   11.5076 C.ar    1  UNL1        0.0732
      5 C          63.1813   82.2169   12.4002 C.ar    1  UNL1        0.1509
      6 N          62.8425   80.8650   11.8456 N.ar    1  UNL1       -0.2058
      7 N          64.1131   84.6185   12.0623 N.am    1  UNL1       -0.2791
      8 C          63.0368   85.6483   12.2381 C.2     1  UNL1        0.2495
      9 O          61.6215   85.3263   11.8593 O.2     1  UNL1       -0.2698
     10 H          65.0420   84.8298   12.3109 H       1  UNL1        0.1552
     11 C          63.3757   87.0002   12.7927 C.ar    1  UNL1        0.0537
     12 C          64.0733   87.1148   14.1156 C.ar    1  UNL1        0.0044
     13 C          64.4122   88.4666   14.6703 C.ar    1  UNL1        0.0009
     14 C          64.0534   89.7040   13.9020 C.ar    1  UNL1        0.0366
     15 C          63.3558   89.5894   12.5789 C.ar    1  UNL1        0.0010
     16 C          62.9971   90.8267   11.8106 C.ar    1  UNL1       -0.0002
     17 C          62.2995   90.7122   10.4877 C.ar    1  UNL1       -0.0000
     18 C          61.9606   89.3603    9.9331 C.ar    1  UNL1        0.0000
     19 C          62.3193   88.1230   10.7014 C.ar    1  UNL1        0.0001
     20 C          63.0169   88.2376   12.0243 C.ar    1  UNL1        0.0042
     21 C          64.3923   91.0558   14.4566 C.3     1  UNL1        0.2826
     22 S          65.7274   91.6735   14.1636 S.O     1  UNL1        0.0405
     23 C          65.8614   92.6826   13.0619 C.3     1  UNL1        0.3201
     24 O          66.9286   91.2822   14.9723 O.co2   1  UNL1       -0.6809
     25 C          62.9273   82.5190   13.8473 C.2     1  UNL1        0.2649
     26 O          61.6692   82.0348   14.5050 O.2     1  UNL1       -0.2684
     27 N          63.9315   83.3054   14.6367 N.am    1  UNL1       -0.2996
     28 H          64.7573   83.6233   14.2050 H       1  UNL1        0.1498
     29 C          63.6776   83.6076   16.0839 C.3     1  UNL1        0.0899
     30 C          62.9209   84.8437   16.4704 C.3     1  UNL1        0.0246
     31 C          63.5497   85.8529   17.3848 C.3     1  UNL1        0.0338
     32 C          62.7930   87.0890   17.7713 C.3     1  UNL1        0.1422
     33 O          61.4074   87.3160   17.2433 O.3     1  UNL1       -0.3538
     34 C          60.7786   86.3068   16.3289 C.3     1  UNL1        0.1422
     35 C          61.5353   85.0707   15.9424 C.3     1  UNL1        0.0338
     36 C          62.7664   78.0087   10.7406 C.3     1  UNL1        0.2542
     37 O          62.7576   79.2110    9.8438 O.3     1  UNL1       -0.4561
@<TRIPOS>UNITY_ATOM_ATTR
22 1
charge 1
24 1
charge -1
@<TRIPOS>BOND
     1    36    37    1
     2    37     1    1
     3     1     2   ar
     4     2     3   ar
     5     3     4   ar
     6     4     7    1
     7     7     8   am
     8     8     9    2
     9     8    11    1
    10    11    12   ar
    11    12    13   ar
    12    13    14   ar
    13    14    21    1
    14    21    22    1
    15    22    23    1
    16    22    24    2
    17    14    15   ar
    18    15    16   ar
    19    16    17   ar
    20    17    18   ar
    21    18    19   ar
    22    19    20   ar
    23     4     5   ar
    24     5    25    1
    25    25    26    2
    26    25    27   am
    27    27    29    1
    28    29    30    1
    29    30    31    1
    30    31    32    1
    31    32    33    1
    32    33    34    1
    33    34    35    1
    34     5     6   ar
    35     6     1   ar
    36    20    11   ar
    37    35    30    1
    38    20    15   ar
    39     7    10    1
    40    27    28    1
