@<TRIPOS>MOLECULE
*****
 23 26 0 0 0
SMALL
GASTEIGER

@<TRIPOS>ATOM
      1 C          64.8051   90.8267   14.2769 C.ar    1  UNL1        0.0534
      2 C          64.6221   89.3765   14.6138 C.ar    1  UNL1        0.0045
      3 C          63.8681   88.4786   13.6783 C.ar    1  UNL1        0.0001
      4 C          63.2970   89.0308   12.4060 C.ar    1  UNL1       -0.0003
      5 C          62.5430   88.1328   11.4705 C.ar    1  UNL1       -0.0039
      6 C          61.9718   88.6850   10.1982 C.ar    1  UNL1       -0.0169
      7 C          62.1548   90.1352    9.8613 C.ar    1  UNL1       -0.0039
      8 C          62.9088   91.0332   10.7967 C.ar    1  UNL1       -0.0003
      9 C          63.4799   90.4809   12.0691 C.ar    1  UNL1        0.0001
     10 C          64.2340   91.3789   13.0046 C.ar    1  UNL1        0.0045
     11 C          61.2178   87.7871    9.2627 C.3     1  UNL1        0.0641
     12 C          59.7754   87.9282    8.8762 C.3     1  UNL1        0.0348
     13 C          59.4399   86.8187    7.9241 C.3     1  UNL1        0.1080
     14 N          60.6750   85.9918    7.7222 N.ar    1  UNL1       -0.3121
     15 C          61.2311   84.7950    7.0091 C.ar    1  UNL1        0.1783
     16 N          62.6735   84.6539    7.3956 N.ar    1  UNL1       -0.2227
     17 C          63.0090   85.7634    8.3477 C.ar    1  UNL1        0.1136
     18 C          61.7739   86.5902    8.5495 C.ar    1  UNL1        0.0613
     19 C          67.7859   92.8355   15.9590 C.3     1  UNL1        0.1109
     20 N          67.0318   91.9375   15.0235 N.am    1  UNL1       -0.2992
     21 C          65.5591   91.7246   15.2124 C.2     1  UNL1        0.2459
     22 O          64.8404   92.4097   16.3367 O.2     1  UNL1       -0.2701
     23 H          67.5035   91.4879   14.2856 H       1  UNL1        0.1498
@<TRIPOS>BOND
     1    19    20    1
     2    20    21   am
     3    21    22    2
     4    21     1    1
     5     1     2   ar
     6     2     3   ar
     7     3     4   ar
     8     4     5   ar
     9     5     6   ar
    10     6    11    1
    11    11    12    1
    12    12    13    1
    13    13    14    1
    14    14    15   ar
    15    15    16   ar
    16    16    17   ar
    17    17    18   ar
    18     6     7   ar
    19     7     8   ar
    20     8     9   ar
    21     9    10   ar
    22    10     1   ar
    23     9     4   ar
    24    18    11    1
    25    18    14   ar
    26    20    23    1
@<TRIPOS>MOLECULE
*****
 23 26 0 0 0
SMALL
GASTEIGER

@<TRIPOS>ATOM
      1 C          61.6920   88.1754    9.9670 C.ar    1  UNL1        0.0534
      2 C          61.7662   89.6415    9.6592 C.ar    1  UNL1        0.0045
      3 C          62.4917   90.5675   10.5899 C.ar    1  UNL1        0.0001
      4 C          63.1429   90.0273   11.8285 C.ar    1  UNL1       -0.0003
      5 C          63.8683   90.9532   12.7593 C.ar    1  UNL1       -0.0039
      6 C          64.5195   90.4130   13.9978 C.ar    1  UNL1       -0.0169
      7 C          64.4453   88.9468   14.3057 C.ar    1  UNL1       -0.0039
      8 C          63.7199   88.0208   13.3749 C.ar    1  UNL1       -0.0003
      9 C          63.0686   88.5611   12.1363 C.ar    1  UNL1        0.0001
     10 C          62.3432   87.6351   11.2055 C.ar    1  UNL1        0.0045
     11 C          65.2450   91.3390   14.9286 C.3     1  UNL1        0.0641
     12 C          64.7103   91.8917   16.2164 C.3     1  UNL1        0.0348
     13 C          65.7673   92.7692   16.8187 C.3     1  UNL1        0.1080
     14 N          66.9554   92.7587   15.9031 N.ar    1  UNL1       -0.3121
     15 C          68.3430   93.2944   15.7093 C.ar    1  UNL1        0.1783
     16 N          68.8778   92.7417   14.4216 N.ar    1  UNL1       -0.2227
     17 C          67.8208   91.8643   13.8193 C.ar    1  UNL1        0.1136
     18 C          66.6327   91.8748   14.7349 C.ar    1  UNL1        0.0613
     19 C          58.8993   86.7102    7.5578 C.3     1  UNL1        0.1109
     20 N          59.6247   87.6362    8.4886 N.am    1  UNL1       -0.2992
     21 C          60.9665   87.2494    9.0362 C.2     1  UNL1        0.2459
     22 O          61.5828   85.9367    8.6531 O.2     1  UNL1       -0.2701
     23 H          59.2202   88.4978    8.7400 H       1  UNL1        0.1498
@<TRIPOS>BOND
     1    19    20    1
     2    20    21   am
     3    21    22    2
     4    21     1    1
     5     1     2   ar
     6     2     3   ar
     7     3     4   ar
     8     4     5   ar
     9     5     6   ar
    10     6    11    1
    11    11    12    1
    12    12    13    1
    13    13    14    1
    14    14    15   ar
    15    15    16   ar
    16    16    17   ar
    17    17    18   ar
    18     6     7   ar
    19     7     8   ar
    20     8     9   ar
    21     9    10   ar
    22    10     1   ar
    23     9     4   ar
    24    18    11    1
    25    18    14   ar
    26    20    23    1
@<TRIPOS>MOLECULE
*****
 23 26 0 0 0
SMALL
GASTEIGER

@<TRIPOS>ATOM
      1 C          61.7707   86.7696    9.5723 C.ar    1  UNL1        0.0534
      2 C          62.1457   85.9862   10.7953 C.ar    1  UNL1        0.0045
      3 C          62.7564   86.6836   11.9746 C.ar    1  UNL1        0.0001
      4 C          62.9922   88.1643   11.9309 C.ar    1  UNL1       -0.0003
      5 C          63.6029   88.8616   13.1102 C.ar    1  UNL1       -0.0039
      6 C          63.8387   90.3423   13.0665 C.ar    1  UNL1       -0.0169
      7 C          63.4637   91.1257   11.8435 C.ar    1  UNL1       -0.0039
      8 C          62.8530   90.4284   10.6642 C.ar    1  UNL1       -0.0003
      9 C          62.6172   88.9476   10.7079 C.ar    1  UNL1        0.0001
     10 C          62.0065   88.2502    9.5286 C.ar    1  UNL1        0.0045
     11 C          64.4494   91.0396   14.2458 C.3     1  UNL1        0.0641
     12 C          63.8613   91.1217   15.6233 C.3     1  UNL1        0.0348
     13 C          64.8039   91.9101   16.4835 C.3     1  UNL1        0.1080
     14 N          65.9745   92.3154   15.6376 N.ar    1  UNL1       -0.3121
     15 C          67.2805   93.0532   15.6464 C.ar    1  UNL1        0.1783
     16 N          67.8685   92.9712   14.2690 N.ar    1  UNL1       -0.2227
     17 C          66.9260   92.1827   13.4088 C.ar    1  UNL1        0.1136
     18 C          65.7554   91.7774   14.2546 C.ar    1  UNL1        0.0613
     19 C          61.4065   84.5390    6.3102 C.3     1  UNL1        0.1109
     20 N          62.0172   85.2363    7.4895 N.am    1  UNL1       -0.2992
     21 C          61.1600   86.0722    8.3931 C.2     1  UNL1        0.2459
     22 O          59.6921   86.2108    8.1173 O.2     1  UNL1       -0.2701
     23 H          62.9806   85.1454    7.6704 H       1  UNL1        0.1498
@<TRIPOS>BOND
     1    19    20    1
     2    20    21   am
     3    21    22    2
     4    21     1    1
     5     1     2   ar
     6     2     3   ar
     7     3     4   ar
     8     4     5   ar
     9     5     6   ar
    10     6    11    1
    11    11    12    1
    12    12    13    1
    13    13    14    1
    14    14    15   ar
    15    15    16   ar
    16    16    17   ar
    17    17    18   ar
    18     6     7   ar
    19     7     8   ar
    20     8     9   ar
    21     9    10   ar
    22    10     1   ar
    23     9     4   ar
    24    18    11    1
    25    18    14   ar
    26    20    23    1
@<TRIPOS>MOLECULE
*****
 23 26 0 0 0
SMALL
GASTEIGER

@<TRIPOS>ATOM
      1 C          65.9378   92.2018   14.0140 C.ar    1  UNL1        0.0534
      2 C          65.7167   92.9913   12.7579 C.ar    1  UNL1        0.0045
      3 C          64.8032   92.4637   11.6915 C.ar    1  UNL1        0.0001
      4 C          64.1108   91.1467   11.8812 C.ar    1  UNL1       -0.0003
      5 C          63.1973   90.6191   10.8149 C.ar    1  UNL1       -0.0039
      6 C          62.5049   89.3021   11.0046 C.ar    1  UNL1       -0.0169
      7 C          62.7260   88.5126   12.2607 C.ar    1  UNL1       -0.0039
      8 C          63.6396   89.0401   13.3271 C.ar    1  UNL1       -0.0003
      9 C          64.3320   90.3573   13.1373 C.ar    1  UNL1        0.0001
     10 C          65.2455   90.8848   14.2037 C.ar    1  UNL1        0.0045
     11 C          61.5914   88.7745    9.9382 C.3     1  UNL1        0.0641
     12 C          60.3971   89.4828    9.3707 C.3     1  UNL1        0.0348
     13 C          59.7793   88.5921    8.3338 C.3     1  UNL1        0.1080
     14 N          60.5918   87.3333    8.2606 N.ar    1  UNL1       -0.3121
     15 C          60.7122   86.0048    7.5746 C.ar    1  UNL1        0.1783
     16 N          61.9064   85.2965    8.1420 N.ar    1  UNL1       -0.2227
     17 C          62.5242   86.1872    9.1789 C.ar    1  UNL1        0.1136
     18 C          61.7117   87.4460    9.2521 C.ar    1  UNL1        0.0613
     19 C          69.1587   93.6858   15.7955 C.3     1  UNL1        0.1109
     20 N          68.2452   93.1583   14.7291 N.am    1  UNL1       -0.2992
     21 C          66.8514   92.7294   15.0803 C.2     1  UNL1        0.2459
     22 O          66.3711   92.8281   16.4979 O.2     1  UNL1       -0.2701
     23 H          68.5604   93.0935   13.7987 H       1  UNL1        0.1498
@<TRIPOS>BOND
     1    19    20    1
     2    20    21   am
     3    21    22    2
     4    21     1    1
     5     1     2   ar
     6     2     3   ar
     7     3     4   ar
     8     4     5   ar
     9     5     6   ar
    10     6    11    1
    11    11    12    1
    12    12    13    1
    13    13    14    1
    14    14    15   ar
    15    15    16   ar
    16    16    17   ar
    17    17    18   ar
    18     6     7   ar
    19     7     8   ar
    20     8     9   ar
    21     9    10   ar
    22    10     1   ar
    23     9     4   ar
    24    18    11    1
    25    18    14   ar
    26    20    23    1
@<TRIPOS>MOLECULE
*****
 23 26 0 0 0
SMALL
GASTEIGER

@<TRIPOS>ATOM
      1 C          59.7525   88.6259    7.5911 C.ar    1  UNL1        0.0534
      2 C          59.5118   87.1546    7.4253 C.ar    1  UNL1        0.0045
      3 C          60.1284   86.1809    8.3853 C.ar    1  UNL1        0.0001
      4 C          60.9858   86.6784    9.5111 C.ar    1  UNL1       -0.0003
      5 C          61.6024   85.7046   10.4711 C.ar    1  UNL1       -0.0039
      6 C          62.4597   86.2021   11.5969 C.ar    1  UNL1       -0.0169
      7 C          62.7005   87.6734   11.7627 C.ar    1  UNL1       -0.0039
      8 C          62.0839   88.6471   10.8027 C.ar    1  UNL1       -0.0003
      9 C          61.2265   88.1496    9.6769 C.ar    1  UNL1        0.0001
     10 C          60.6098   89.1233    8.7169 C.ar    1  UNL1        0.0045
     11 C          63.0764   85.2284   12.5569 C.3     1  UNL1        0.0641
     12 C          63.8020   85.5773   13.8224 C.3     1  UNL1        0.0348
     13 C          64.2497   84.2993   14.4676 C.3     1  UNL1        0.1080
     14 N          63.8008   83.1604   13.6008 N.ar    1  UNL1       -0.3121
     15 C          63.8000   81.6667   13.4637 C.ar    1  UNL1        0.1783
     16 N          63.0743   81.3177   12.1982 N.ar    1  UNL1       -0.2227
     17 C          62.6266   82.5957   11.5530 C.ar    1  UNL1        0.1136
     18 C          63.0756   83.7345   12.4198 C.ar    1  UNL1        0.0613
     19 C          59.3908   91.5167    4.8963 C.3     1  UNL1        0.1109
     20 N          60.0074   90.5430    5.8563 N.am    1  UNL1       -0.2992
     21 C          59.1359   89.5996    6.6311 C.2     1  UNL1        0.2459
     22 O          57.6477   89.6299    6.4459 O.2     1  UNL1       -0.2701
     23 H          60.9842   90.5231    5.9779 H       1  UNL1        0.1498
@<TRIPOS>BOND
     1    19    20    1
     2    20    21   am
     3    21    22    2
     4    21     1    1
     5     1     2   ar
     6     2     3   ar
     7     3     4   ar
     8     4     5   ar
     9     5     6   ar
    10     6    11    1
    11    11    12    1
    12    12    13    1
    13    13    14    1
    14    14    15   ar
    15    15    16   ar
    16    16    17   ar
    17    17    18   ar
    18     6     7   ar
    19     7     8   ar
    20     8     9   ar
    21     9    10   ar
    22    10     1   ar
    23     9     4   ar
    24    18    11    1
    25    18    14   ar
    26    20    23    1
@<TRIPOS>MOLECULE
*****
 23 26 0 0 0
SMALL
GASTEIGER

@<TRIPOS>ATOM
      1 C          63.4907   83.8511   13.1974 C.ar    1  UNL1        0.0534
      2 C          64.2163   83.9185   14.5085 C.ar    1  UNL1        0.0045
      3 C          64.5876   85.2492   15.0927 C.ar    1  UNL1        0.0001
      4 C          64.2334   86.5125   14.3659 C.ar    1  UNL1       -0.0003
      5 C          64.6047   87.8432   14.9501 C.ar    1  UNL1       -0.0039
      6 C          64.2505   89.1066   14.2233 C.ar    1  UNL1       -0.0169
      7 C          63.5249   89.0393   12.9121 C.ar    1  UNL1       -0.0039
      8 C          63.1536   87.7086   12.3279 C.ar    1  UNL1       -0.0003
      9 C          63.5078   86.4452   13.0548 C.ar    1  UNL1        0.0001
     10 C          63.1365   85.1145   12.4706 C.ar    1  UNL1        0.0045
     11 C          64.6219   90.4373   14.8075 C.3     1  UNL1        0.0641
     12 C          64.0512   91.0424   16.0558 C.3     1  UNL1        0.0348
     13 C          64.7057   92.3756   16.2658 C.3     1  UNL1        0.1080
     14 N          65.6809   92.5946   15.1473 N.ar    1  UNL1       -0.3121
     15 C          66.6882   93.5538   14.5858 C.ar    1  UNL1        0.1783
     16 N          67.2589   92.9488   13.3375 N.ar    1  UNL1       -0.2227
     17 C          66.6044   91.6156   13.1275 C.ar    1  UNL1        0.1136
     18 C          65.6291   91.3966   14.2460 C.ar    1  UNL1        0.0613
     19 C          62.3576   80.0570   12.9315 C.3     1  UNL1        0.1109
     20 N          62.7290   81.3877   13.5157 N.am    1  UNL1       -0.2992
     21 C          63.1193   82.5204   12.6132 C.2     1  UNL1        0.2459
     22 O          63.1383   82.3224   11.1265 O.2     1  UNL1       -0.2701
     23 H          62.7165   81.5176   14.4915 H       1  UNL1        0.1498
@<TRIPOS>BOND
     1    19    20    1
     2    20    21   am
     3    21    22    2
     4    21     1    1
     5     1     2   ar
     6     2     3   ar
     7     3     4   ar
     8     4     5   ar
     9     5     6   ar
    10     6    11    1
    11    11    12    1
    12    12    13    1
    13    13    14    1
    14    14    15   ar
    15    15    16   ar
    16    16    17   ar
    17    17    18   ar
    18     6     7   ar
    19     7     8   ar
    20     8     9   ar
    21     9    10   ar
    22    10     1   ar
    23     9     4   ar
    24    18    11    1
    25    18    14   ar
    26    20    23    1
@<TRIPOS>MOLECULE
*****
 23 26 0 0 0
SMALL
GASTEIGER

@<TRIPOS>ATOM
      1 C          64.1833   89.5337   13.9421 C.ar    1  UNL1        0.0534
      2 C          63.5014   89.2553   12.6354 C.ar    1  UNL1        0.0045
      3 C          63.1078   87.8525   12.2787 C.ar    1  UNL1        0.0001
      4 C          63.3961   86.7281   13.2286 C.ar    1  UNL1       -0.0003
      5 C          63.0025   85.3253   12.8718 C.ar    1  UNL1       -0.0039
      6 C          63.2908   84.2008   13.8217 C.ar    1  UNL1       -0.0169
      7 C          63.9728   84.4791   15.1285 C.ar    1  UNL1       -0.0039
      8 C          64.3664   85.8819   15.4853 C.ar    1  UNL1       -0.0003
      9 C          64.0780   87.0064   14.5353 C.ar    1  UNL1        0.0001
     10 C          64.4716   88.4092   14.8920 C.ar    1  UNL1        0.0045
     11 C          62.8973   82.7980   13.4650 C.3     1  UNL1        0.0641
     12 C          62.1815   81.8288   14.3585 C.3     1  UNL1        0.0348
     13 C          61.9922   80.5499   13.5978 C.3     1  UNL1        0.1080
     14 N          62.5910   80.7287   12.2342 N.ar    1  UNL1       -0.3121
     15 C          62.8441   80.0489   10.9212 C.ar    1  UNL1        0.1783
     16 N          63.5598   81.0181   10.0277 N.ar    1  UNL1       -0.2227
     17 C          63.7491   82.2970   10.7884 C.ar    1  UNL1        0.1136
     18 C          63.1504   82.1182   12.1520 C.ar    1  UNL1        0.0613
     19 C          66.1112   93.0025   13.9424 C.3     1  UNL1        0.1109
     20 N          65.7176   91.5997   13.5857 N.am    1  UNL1       -0.2992
     21 C          64.5769   90.9364   14.2989 C.2     1  UNL1        0.2459
     22 O          63.8297   91.6759   15.3688 O.2     1  UNL1       -0.2701
     23 H          66.2080   91.1144   12.8834 H       1  UNL1        0.1498
@<TRIPOS>BOND
     1    19    20    1
     2    20    21   am
     3    21    22    2
     4    21     1    1
     5     1     2   ar
     6     2     3   ar
     7     3     4   ar
     8     4     5   ar
     9     5     6   ar
    10     6    11    1
    11    11    12    1
    12    12    13    1
    13    13    14    1
    14    14    15   ar
    15    15    16   ar
    16    16    17   ar
    17    17    18   ar
    18     6     7   ar
    19     7     8   ar
    20     8     9   ar
    21     9    10   ar
    22    10     1   ar
    23     9     4   ar
    24    18    11    1
    25    18    14   ar
    26    20    23    1
@<TRIPOS>MOLECULE
*****
 23 26 0 0 0
SMALL
GASTEIGER

@<TRIPOS>ATOM
      1 C          59.5258   88.9162    7.2167 C.ar    1  UNL1        0.0534
      2 C          59.2199   87.4688    6.9695 C.ar    1  UNL1        0.0045
      3 C          59.7920   86.4164    7.8724 C.ar    1  UNL1        0.0001
      4 C          60.6701   86.8116    9.0225 C.ar    1  UNL1       -0.0003
      5 C          61.2422   85.7592    9.9254 C.ar    1  UNL1       -0.0039
      6 C          62.1204   86.1543   11.0755 C.ar    1  UNL1       -0.0169
      7 C          62.4264   87.6019   11.3227 C.ar    1  UNL1       -0.0039
      8 C          61.8542   88.6542   10.4198 C.ar    1  UNL1       -0.0003
      9 C          60.9761   88.2590    9.2697 C.ar    1  UNL1        0.0001
     10 C          60.4039   89.3114    8.3668 C.ar    1  UNL1        0.0045
     11 C          62.6925   85.1020   11.9784 C.3     1  UNL1        0.0641
     12 C          62.6005   83.6190   11.7730 C.3     1  UNL1        0.0348
     13 C          63.3082   82.9483   12.9129 C.3     1  UNL1        0.1080
     14 N          63.8376   84.0168   13.8228 N.ar    1  UNL1       -0.3121
     15 C          64.6022   84.2628   15.0896 C.ar    1  UNL1        0.1783
     16 N          64.6943   85.7458   15.2951 N.ar    1  UNL1       -0.2227
     17 C          63.9865   86.4165   14.1552 C.ar    1  UNL1        0.1136
     18 C          63.4571   85.3479   13.2453 C.ar    1  UNL1        0.0613
     19 C          59.2948   91.9651    4.6867 C.3     1  UNL1        0.1109
     20 N          59.8669   90.9127    5.5896 N.am    1  UNL1       -0.2992
     21 C          58.9537   89.9686    6.3138 C.2     1  UNL1        0.2459
     22 O          57.4683   90.0768    6.1352 O.2     1  UNL1       -0.2701
     23 H          60.8418   90.8417    5.7068 H       1  UNL1        0.1498
@<TRIPOS>BOND
     1    19    20    1
     2    20    21   am
     3    21    22    2
     4    21     1    1
     5     1     2   ar
     6     2     3   ar
     7     3     4   ar
     8     4     5   ar
     9     5     6   ar
    10     6    11    1
    11    11    12    1
    12    12    13    1
    13    13    14    1
    14    14    15   ar
    15    15    16   ar
    16    16    17   ar
    17    17    18   ar
    18     6     7   ar
    19     7     8   ar
    20     8     9   ar
    21     9    10   ar
    22    10     1   ar
    23     9     4   ar
    24    18    11    1
    25    18    14   ar
    26    20    23    1
@<TRIPOS>MOLECULE
*****
 23 26 0 0 0
SMALL
GASTEIGER

@<TRIPOS>ATOM
      1 C          61.2952   88.9922    9.7258 C.ar    1  UNL1        0.0534
      2 C          61.2597   88.2151   11.0083 C.ar    1  UNL1        0.0045
      3 C          62.1276   88.6283   12.1599 C.ar    1  UNL1        0.0001
      4 C          63.0311   89.8184   12.0289 C.ar    1  UNL1       -0.0003
      5 C          63.8990   90.2316   13.1804 C.ar    1  UNL1       -0.0039
      6 C          64.8025   91.4217   13.0494 C.ar    1  UNL1       -0.0169
      7 C          64.8380   92.1989   11.7669 C.ar    1  UNL1       -0.0039
      8 C          63.9701   91.7857   10.6153 C.ar    1  UNL1       -0.0003
      9 C          63.0666   90.5955   10.7464 C.ar    1  UNL1        0.0001
     10 C          62.1987   90.1824    9.5948 C.ar    1  UNL1        0.0045
     11 C          65.6704   91.8349   14.2010 C.3     1  UNL1        0.0641
     12 C          65.2033   92.1310   15.5953 C.3     1  UNL1        0.0348
     13 C          66.4020   92.5035   16.4165 C.3     1  UNL1        0.1080
     14 N          67.6100   92.4377   15.5296 N.ar    1  UNL1       -0.3121
     15 C          69.0974   92.6273   15.4889 C.ar    1  UNL1        0.1783
     16 N          69.5645   92.3312   14.0946 N.ar    1  UNL1       -0.2227
     17 C          68.3658   91.9586   13.2735 C.ar    1  UNL1        0.1136
     18 C          67.1579   92.0244   14.1603 C.ar    1  UNL1        0.0613
     19 C          59.0071   89.2027    6.4901 C.3     1  UNL1        0.1109
     20 N          59.8750   89.6159    7.6416 N.am    1  UNL1       -0.2992
     21 C          60.4273   88.5791    8.5743 C.2     1  UNL1        0.2459
     22 O          60.1116   87.1291    8.3554 O.2     1  UNL1       -0.2701
     23 H          60.0822   90.5676    7.7852 H       1  UNL1        0.1498
@<TRIPOS>BOND
     1    19    20    1
     2    20    21   am
     3    21    22    2
     4    21     1    1
     5     1     2   ar
     6     2     3   ar
     7     3     4   ar
     8     4     5   ar
     9     5     6   ar
    10     6    11    1
    11    11    12    1
    12    12    13    1
    13    13    14    1
    14    14    15   ar
    15    15    16   ar
    16    16    17   ar
    17    17    18   ar
    18     6     7   ar
    19     7     8   ar
    20     8     9   ar
    21     9    10   ar
    22    10     1   ar
    23     9     4   ar
    24    18    11    1
    25    18    14   ar
    26    20    23    1
