@<TRIPOS>MOLECULE
*****
 39 44 0 0 0
SMALL
GASTEIGER

@<TRIPOS>ATOM
      1 N          63.0969   84.5513   16.8129 N.pl3   1  UNL1       -0.3275
      2 C          63.2781   85.9095   16.2026 C.ar    1  UNL1        0.2143
      3 N          63.2023   87.2197   16.9290 N.ar    1  UNL1       -0.2126
      4 C          63.4442   88.3160   15.9342 C.ar    1  UNL1        0.1017
      5 C          63.4884   89.8085   16.0763 C.ar    1  UNL1        0.0208
      6 C          63.7581   90.6684   14.8772 C.ar    1  UNL1        0.0052
      7 C          63.9835   90.0357   13.5360 C.ar    1  UNL1        0.0450
      8 C          63.9393   88.5431   13.3938 C.ar    1  UNL1        0.0241
      9 C          63.6696   87.6833   14.5929 C.ar    1  UNL1        0.1027
     10 N          63.5670   86.1960   14.7589 N.ar    1  UNL1       -0.1822
     11 H          62.9094   84.4652   17.7755 H       1  UNL1        0.1451
     12 H          63.1656   83.7459   16.2508 H       1  UNL1        0.1451
     13 C          64.2531   90.8957   12.3368 C.2     1  UNL1        0.2240
     14 N          65.3817   91.8725   12.1882 N.2     1  UNL1       -0.0343
     15 C          65.2676   92.5103   10.8354 C.2     1  UNL1        0.3753
     16 N          64.0684   91.9277   10.1479 N.2     1  UNL1       -0.0510
     17 C          63.4415   90.9298   11.0758 C.3     1  UNL1        0.3017
     18 C          66.1906   93.5485   10.2694 C.ar    1  UNL1        0.1426
     19 C          65.8522   95.0040   10.3997 C.ar    1  UNL1        0.1497
     20 F          64.5907   95.4214   11.0961 F       1  UNL1       -0.2038
     21 C          66.7751   96.0422    9.8338 C.ar    1  UNL1        0.0300
     22 C          68.0365   95.6248    9.1375 C.ar    1  UNL1        0.0046
     23 C          68.3748   94.1693    9.0072 C.ar    1  UNL1        0.0300
     24 C          67.4519   93.1311    9.5731 C.ar    1  UNL1        0.1497
     25 F          67.7903   91.6756    9.4428 F       1  UNL1       -0.2038
     26 C          62.2177   90.1099   10.7925 C.ar    1  UNL1        0.0343
     27 C          60.8725   90.5857   11.2554 C.ar    1  UNL1        0.0003
     28 C          59.6488   89.7659   10.9720 C.ar    1  UNL1       -0.0002
     29 C          59.7701   88.4703   10.2259 C.ar    1  UNL1       -0.0000
     30 C          61.1153   87.9945    9.7630 C.ar    1  UNL1       -0.0002
     31 C          62.3390   88.8144   10.0464 C.ar    1  UNL1        0.0003
     32 S          63.7254   85.1746   13.6719 S.O2    1  UNL1        0.0667
     33 O          65.0362   84.7482   14.2635 O.2     1  UNL1       -0.1521
     34 O          62.4146   85.6009   13.0802 O.2     1  UNL1       -0.1521
     35 C          63.8838   84.1531   12.5848 C.3     1  UNL1        0.1515
     36 C          64.4221   82.7631   12.7528 C.3     1  UNL1        0.0257
     37 C          64.4028   82.0933   11.4108 C.3     1  UNL1        0.0019
     38 C          63.8525   83.0694   10.4135 C.3     1  UNL1        0.0019
     39 C          63.5318   84.3424   11.1391 C.3     1  UNL1        0.0257
@<TRIPOS>BOND
     1     1     2    1
     2     2     3   ar
     3     3     4   ar
     4     4     5   ar
     5     5     6   ar
     6     6     7   ar
     7     7    13    1
     8    13    14    2
     9    14    15    1
    10    15    18    1
    11    18    19   ar
    12    19    20    1
    13    19    21   ar
    14    21    22   ar
    15    22    23   ar
    16    23    24   ar
    17    24    25    1
    18    15    16    2
    19    16    17    1
    20    17    26    1
    21    26    27   ar
    22    27    28   ar
    23    28    29   ar
    24    29    30   ar
    25    30    31   ar
    26     7     8   ar
    27     8     9   ar
    28     9    10   ar
    29    10    32    1
    30    32    33    2
    31    32    34    2
    32    32    35    1
    33    35    36    1
    34    36    37    1
    35    37    38    1
    36    38    39    1
    37    10     2   ar
    38    39    35    1
    39     9     4   ar
    40    17    13    1
    41    31    26   ar
    42    24    18   ar
    43     1    11    1
    44     1    12    1
@<TRIPOS>MOLECULE
*****
 39 44 0 0 0
SMALL
GASTEIGER

@<TRIPOS>ATOM
      1 N          66.8766   94.3807   14.9196 N.pl3   1  UNL1       -0.3275
      2 C          66.1243   93.0831   14.8979 C.ar    1  UNL1        0.2143
      3 N          65.3618   92.4867   16.0437 N.ar    1  UNL1       -0.2126
      4 C          64.7687   91.1892   15.5805 C.ar    1  UNL1        0.1017
      5 C          63.9192   90.1683   16.2777 C.ar    1  UNL1        0.0208
      6 C          63.4657   88.9419   15.5428 C.ar    1  UNL1        0.0052
      7 C          63.8615   88.7364   14.1106 C.ar    1  UNL1        0.0450
      8 C          64.7110   89.7573   13.4134 C.ar    1  UNL1        0.0241
      9 C          65.1646   90.9837   14.1483 C.ar    1  UNL1        0.1027
     10 N          66.0024   92.1542   13.7265 N.ar    1  UNL1       -0.1822
     11 H          66.8985   94.9233   15.7408 H       1  UNL1        0.1451
     12 H          67.3485   94.6896   14.1128 H       1  UNL1        0.1451
     13 C          63.4079   87.5099   13.3757 C.2     1  UNL1        0.2240
     14 N          63.6608   86.0903   13.7891 N.2     1  UNL1       -0.0343
     15 C          63.0310   85.1907   12.7673 C.2     1  UNL1        0.3753
     16 N          62.3889   86.0544   11.7224 N.2     1  UNL1       -0.0510
     17 C          62.6218   87.4877   12.0984 C.3     1  UNL1        0.3017
     18 C          63.0415   83.6909   12.7870 C.ar    1  UNL1        0.1426
     19 C          62.5128   82.9528   13.9810 C.ar    1  UNL1        0.1497
     20 F          61.9735   83.7145   15.1554 F       1  UNL1       -0.2038
     21 C          62.5233   81.4529   14.0006 C.ar    1  UNL1        0.0300
     22 C          63.0625   80.6913   12.8263 C.ar    1  UNL1        0.0046
     23 C          63.5912   81.4294   11.6323 C.ar    1  UNL1        0.0300
     24 C          63.5808   82.9292   11.6127 C.ar    1  UNL1        0.1497
     25 F          64.1095   83.6674   10.4187 F       1  UNL1       -0.2038
     26 C          62.1513   88.6879   11.3317 C.ar    1  UNL1        0.0343
     27 C          63.1493   89.6460   10.7519 C.ar    1  UNL1        0.0003
     28 C          62.6787   90.8463    9.9851 C.ar    1  UNL1       -0.0002
     29 C          61.2102   91.0886    9.7982 C.ar    1  UNL1       -0.0000
     30 C          60.2123   90.1305   10.3780 C.ar    1  UNL1       -0.0002
     31 C          60.6829   88.9302   11.1448 C.ar    1  UNL1        0.0003
     32 S          66.6114   92.3597   12.3711 S.O2    1  UNL1        0.0667
     33 O          67.9580   91.9924   12.9205 O.2     1  UNL1       -0.1521
     34 O          65.2649   92.7270   11.8218 O.2     1  UNL1       -0.1521
     35 C          67.2204   92.5651   11.0158 C.3     1  UNL1        0.1515
     36 C          66.8369   93.6274   10.0286 C.3     1  UNL1        0.0257
     37 C          67.6994   93.4631    8.8125 C.3     1  UNL1        0.0019
     38 C          68.6160   92.2993    9.0481 C.3     1  UNL1        0.0019
     39 C          68.3200   91.7443   10.4098 C.3     1  UNL1        0.0257
@<TRIPOS>BOND
     1     1     2    1
     2     2     3   ar
     3     3     4   ar
     4     4     5   ar
     5     5     6   ar
     6     6     7   ar
     7     7    13    1
     8    13    14    2
     9    14    15    1
    10    15    18    1
    11    18    19   ar
    12    19    20    1
    13    19    21   ar
    14    21    22   ar
    15    22    23   ar
    16    23    24   ar
    17    24    25    1
    18    15    16    2
    19    16    17    1
    20    17    26    1
    21    26    27   ar
    22    27    28   ar
    23    28    29   ar
    24    29    30   ar
    25    30    31   ar
    26     7     8   ar
    27     8     9   ar
    28     9    10   ar
    29    10    32    1
    30    32    33    2
    31    32    34    2
    32    32    35    1
    33    35    36    1
    34    36    37    1
    35    37    38    1
    36    38    39    1
    37    10     2   ar
    38    39    35    1
    39     9     4   ar
    40    17    13    1
    41    31    26   ar
    42    24    18   ar
    43     1    11    1
    44     1    12    1
@<TRIPOS>MOLECULE
*****
 39 44 0 0 0
SMALL
GASTEIGER

@<TRIPOS>ATOM
      1 N          59.7115   86.1104    8.5914 N.pl3   1  UNL1       -0.3275
      2 C          60.4526   87.0946    9.4471 C.ar    1  UNL1        0.2143
      3 N          60.1663   88.5633    9.5513 N.ar    1  UNL1       -0.2126
      4 C          61.1469   89.1593   10.5174 C.ar    1  UNL1        0.1017
      5 C          61.3425   90.5619   11.0119 C.ar    1  UNL1        0.0208
      6 C          62.4304   90.8640   11.9994 C.ar    1  UNL1        0.0052
      7 C          63.3228   89.7636   12.4922 C.ar    1  UNL1        0.0450
      8 C          63.1271   88.3611   11.9977 C.ar    1  UNL1        0.0241
      9 C          62.0392   88.0589   11.0102 C.ar    1  UNL1        0.1027
     10 N          61.6101   86.7829   10.3488 N.ar    1  UNL1       -0.1822
     11 H          58.9611   86.4129    8.0305 H       1  UNL1        0.1451
     12 H          59.9755   85.1619    8.5908 H       1  UNL1        0.1451
     13 C          64.4107   90.0658   13.4797 C.2     1  UNL1        0.2240
     14 N          65.3621   91.2238   13.4165 N.2     1  UNL1       -0.0343
     15 C          66.2777   91.1368   14.6014 C.2     1  UNL1        0.3753
     16 N          65.8922   89.9249   15.3970 N.2     1  UNL1       -0.0510
     17 C          64.7384   89.2630   14.7037 C.3     1  UNL1        0.3017
     18 C          67.3844   92.0935   14.9326 C.ar    1  UNL1        0.1426
     19 C          67.2484   93.0215   16.1033 C.ar    1  UNL1        0.1497
     20 F          66.0055   92.9926   16.9428 F       1  UNL1       -0.2038
     21 C          68.3551   93.9782   16.4345 C.ar    1  UNL1        0.0300
     22 C          69.5979   94.0070   15.5951 C.ar    1  UNL1        0.0046
     23 C          69.7339   93.0791   14.4244 C.ar    1  UNL1        0.0300
     24 C          68.6272   92.1224   14.0932 C.ar    1  UNL1        0.1497
     25 F          68.7632   91.1944   12.9225 F       1  UNL1       -0.2038
     26 C          64.0356   88.0172   15.1553 C.ar    1  UNL1        0.0343
     27 C          63.1348   88.0569   16.3541 C.ar    1  UNL1        0.0003
     28 C          62.4320   86.8110   16.8056 C.ar    1  UNL1       -0.0002
     29 C          62.6300   85.5254   16.0584 C.ar    1  UNL1       -0.0000
     30 C          63.5308   85.4858   14.8597 C.ar    1  UNL1       -0.0002
     31 C          64.2335   86.7317   14.4082 C.ar    1  UNL1        0.0003
     32 S          62.2297   85.4322   10.5531 S.O2    1  UNL1        0.0667
     33 O          61.7447   85.4245   11.9725 O.2     1  UNL1       -0.1521
     34 O          62.7147   85.4400    9.1338 O.2     1  UNL1       -0.1521
     35 C          62.8494   84.0815   10.7576 C.3     1  UNL1        0.1515
     36 C          63.8339   83.4155    9.8426 C.3     1  UNL1        0.0257
     37 C          64.1862   82.0821   10.4325 C.3     1  UNL1        0.0019
     38 C          63.4194   81.9241   11.7120 C.3     1  UNL1        0.0019
     39 C          62.5932   83.1598   11.9129 C.3     1  UNL1        0.0257
@<TRIPOS>BOND
     1     1     2    1
     2     2     3   ar
     3     3     4   ar
     4     4     5   ar
     5     5     6   ar
     6     6     7   ar
     7     7    13    1
     8    13    14    2
     9    14    15    1
    10    15    18    1
    11    18    19   ar
    12    19    20    1
    13    19    21   ar
    14    21    22   ar
    15    22    23   ar
    16    23    24   ar
    17    24    25    1
    18    15    16    2
    19    16    17    1
    20    17    26    1
    21    26    27   ar
    22    27    28   ar
    23    28    29   ar
    24    29    30   ar
    25    30    31   ar
    26     7     8   ar
    27     8     9   ar
    28     9    10   ar
    29    10    32    1
    30    32    33    2
    31    32    34    2
    32    32    35    1
    33    35    36    1
    34    36    37    1
    35    37    38    1
    36    38    39    1
    37    10     2   ar
    38    39    35    1
    39     9     4   ar
    40    17    13    1
    41    31    26   ar
    42    24    18   ar
    43     1    11    1
    44     1    12    1
@<TRIPOS>MOLECULE
*****
 39 44 0 0 0
SMALL
GASTEIGER

@<TRIPOS>ATOM
      1 N          61.8278   81.8444   12.3814 N.pl3   1  UNL1       -0.3275
      2 C          62.3836   83.0972   12.9910 C.ar    1  UNL1        0.2143
      3 N          62.7379   83.2929   14.4353 N.ar    1  UNL1       -0.2126
      4 C          63.2559   84.6910   14.6002 C.ar    1  UNL1        0.1017
      5 C          63.7543   85.4417   15.7993 C.ar    1  UNL1        0.0208
      6 C          64.2185   86.8608   15.6560 C.ar    1  UNL1        0.0052
      7 C          64.1844   87.5292   14.3135 C.ar    1  UNL1        0.0450
      8 C          63.6860   86.7784   13.1144 C.ar    1  UNL1        0.0241
      9 C          63.2218   85.3593   13.2578 C.ar    1  UNL1        0.1027
     10 N          62.6826   84.3743   12.2632 N.ar    1  UNL1       -0.1822
     11 H          61.6648   81.0534   12.9444 H       1  UNL1        0.1451
     12 H          61.6260   81.8132   11.4183 H       1  UNL1        0.1451
     13 C          64.6487   88.9483   14.1702 C.2     1  UNL1        0.2240
     14 N          65.8360   89.5607   14.8523 N.2     1  UNL1       -0.0343
     15 C          65.9283   90.9951   14.4234 C.2     1  UNL1        0.3753
     16 N          64.7980   91.2692   13.4762 N.2     1  UNL1       -0.0510
     17 C          64.0071   90.0043   13.3197 C.3     1  UNL1        0.3017
     18 C          66.9683   91.9820   14.8642 C.ar    1  UNL1        0.1426
     19 C          68.2466   92.1201   14.0915 C.ar    1  UNL1        0.1497
     20 F          68.4848   91.2712   12.8779 F       1  UNL1       -0.2038
     21 C          69.2866   93.1070   14.5324 C.ar    1  UNL1        0.0300
     22 C          69.0483   93.9559   15.7459 C.ar    1  UNL1        0.0046
     23 C          67.7701   93.8178   16.5186 C.ar    1  UNL1        0.0300
     24 C          66.7301   92.8308   16.0778 C.ar    1  UNL1        0.1497
     25 F          65.4518   92.6927   16.8505 F       1  UNL1       -0.2038
     26 C          62.7887   89.8265   12.4632 C.ar    1  UNL1        0.0343
     27 C          62.9306   89.6923   10.9759 C.ar    1  UNL1        0.0003
     28 C          61.7121   89.5146   10.1193 C.ar    1  UNL1       -0.0002
     29 C          60.3518   89.4710   10.7499 C.ar    1  UNL1       -0.0000
     30 C          60.2099   89.6052   12.2371 C.ar    1  UNL1       -0.0002
     31 C          61.4284   89.7830   13.0937 C.ar    1  UNL1        0.0003
     32 S          62.4784   84.6228   10.7981 S.O2    1  UNL1        0.0667
     33 O          63.5363   83.6085   10.4786 O.2     1  UNL1       -0.1521
     34 O          61.4206   85.6371   11.1176 O.2     1  UNL1       -0.1521
     35 C          62.2743   84.8713    9.3329 C.3     1  UNL1        0.1515
     36 C          63.1717   84.4033    8.2258 C.3     1  UNL1        0.0257
     37 C          62.5888   84.8741    6.9264 C.3     1  UNL1        0.0019
     38 C          61.3313   85.6331    7.2304 C.3     1  UNL1        0.0019
     39 C          61.1368   85.6313    8.7177 C.3     1  UNL1        0.0257
@<TRIPOS>BOND
     1     1     2    1
     2     2     3   ar
     3     3     4   ar
     4     4     5   ar
     5     5     6   ar
     6     6     7   ar
     7     7    13    1
     8    13    14    2
     9    14    15    1
    10    15    18    1
    11    18    19   ar
    12    19    20    1
    13    19    21   ar
    14    21    22   ar
    15    22    23   ar
    16    23    24   ar
    17    24    25    1
    18    15    16    2
    19    16    17    1
    20    17    26    1
    21    26    27   ar
    22    27    28   ar
    23    28    29   ar
    24    29    30   ar
    25    30    31   ar
    26     7     8   ar
    27     8     9   ar
    28     9    10   ar
    29    10    32    1
    30    32    33    2
    31    32    34    2
    32    32    35    1
    33    35    36    1
    34    36    37    1
    35    37    38    1
    36    38    39    1
    37    10     2   ar
    38    39    35    1
    39     9     4   ar
    40    17    13    1
    41    31    26   ar
    42    24    18   ar
    43     1    11    1
    44     1    12    1
