@<TRIPOS>MOLECULE
*****
 38 42 0 0 0
SMALL
GASTEIGER

@<TRIPOS>ATOM
      1 C          63.1160   87.7108   17.2303 C.3     1  UNL1        0.0666
      2 S          62.4779   88.8503   16.4926 S.3     1  UNL1       -0.0756
      3 C          63.8991   88.9434   13.5564 C.3     1  UNL1        0.1337
      4 N          63.9791   90.0092   14.6088 N.ar    1  UNL1       -0.2918
      5 C          63.3259   89.9664   15.9584 C.ar    1  UNL1        0.1930
      6 N          63.6694   91.2357   16.6802 N.ar    1  UNL1       -0.1224
      7 N          64.5349   92.0630   15.7766 N.ar    1  UNL1       -0.1328
      8 C          64.7264   91.3050   14.4964 C.ar    1  UNL1        0.1433
      9 C          65.5249   91.7624   13.3118 C.3     1  UNL1        0.0622
     10 C          67.0219   91.6726   13.3366 C.3     1  UNL1        0.0291
     11 C          67.8204   92.1301   12.1520 C.3     1  UNL1        0.0954
     12 N          67.1217   92.6774   10.9427 N.am    1  UNL1       -0.2644
     13 C          67.9202   93.1348    9.7581 C.2     1  UNL1        0.3008
     14 N          69.4173   93.0450    9.7829 N.am    1  UNL1       -0.3132
     15 O          67.2215   93.6821    8.5488 O.2     1  UNL1       -0.2528
     16 C          65.6246   92.7672   10.9180 C.3     1  UNL1        0.0954
     17 C          64.8262   92.3097   12.1026 C.3     1  UNL1        0.0291
     18 H          69.8758   92.6858   10.5766 H       1  UNL1        0.1465
     19 H          69.9413   93.3453    9.0054 H       1  UNL1        0.1465
     20 C          63.1760   86.3501   16.6018 C.3     1  UNL1        0.0294
     21 C          64.2970   86.0044   15.6671 C.3     1  UNL1        0.0730
     22 N          64.1037   84.9440   14.6239 N.3     1  UNL1       -0.2726
     23 C          64.5567   83.5174   14.7222 C.3     1  UNL1        0.0721
     24 C          64.1564   82.8159   13.4582 C.3     1  UNL1        0.0190
     25 C          63.4560   83.8089   12.5788 C.3     1  UNL1        0.0201
     26 C          63.1905   82.8582   11.4493 C.3     1  UNL1        0.0061
     27 C          62.7375   84.2848   11.3510 C.3     1  UNL1        0.0237
     28 C          63.4234   85.1242   13.2992 C.3     1  UNL1        0.0724
     29 C          62.0612   85.3832   10.5854 C.ar    1  UNL1       -0.0225
     30 C          62.2051   85.4566    9.0941 C.ar    1  UNL1       -0.0043
     31 C          61.5288   86.5550    8.3286 C.ar    1  UNL1        0.0035
     32 C          60.7086   87.5799    9.0543 C.ar    1  UNL1        0.0714
     33 C          60.5647   87.5065   10.5456 C.ar    1  UNL1        0.0035
     34 C          61.2410   86.4081   11.3111 C.ar    1  UNL1       -0.0043
     35 C          60.0323   88.6783    8.2887 C.3     1  UNL1        0.4186
     36 F          59.3559   89.7767    7.5231 F       1  UNL1       -0.1659
     37 F          60.4201   89.6599    9.3545 F       1  UNL1       -0.1659
     38 F          59.6445   87.6966    7.2229 F       1  UNL1       -0.1659
@<TRIPOS>BOND
     1     3     4    1
     2     4     5   ar
     3     5     2    1
     4     2     1    1
     5     1    20    1
     6    20    21    1
     7    21    22    1
     8    22    23    1
     9    23    24    1
    10    25    24    1
    11    25    26    1
    12    26    27    1
    13    27    29    1
    14    29    30   ar
    15    30    31   ar
    16    31    32   ar
    17    32    35    1
    18    35    36    1
    19    35    37    1
    20    35    38    1
    21    32    33   ar
    22    33    34   ar
    23    25    28    1
    24     5     6   ar
    25     6     7   ar
    26     7     8   ar
    27     8     9    1
    28     9    10    1
    29    10    11    1
    30    11    12    1
    31    12    13   am
    32    13    14   am
    33    13    15    2
    34    12    16    1
    35    16    17    1
    36     8     4   ar
    37    17     9    1
    38    28    22    1
    39    27    25    1
    40    34    29   ar
    41    14    18    1
    42    14    19    1
@<TRIPOS>MOLECULE
*****
 38 42 0 0 0
SMALL
GASTEIGER

@<TRIPOS>ATOM
      1 C          59.8335   87.9071    8.5623 C.3     1  UNL1        0.0666
      2 S          60.2158   89.2810    9.0274 S.3     1  UNL1       -0.0756
      3 C          62.9254   90.9750    9.6890 C.3     1  UNL1        0.1337
      4 N          62.0737   90.2488   10.6876 N.ar    1  UNL1       -0.2918
      5 C          60.8282   89.4702   10.3835 C.ar    1  UNL1        0.1930
      6 N          60.3027   88.9139   11.6737 N.ar    1  UNL1       -0.1224
      7 N          61.2234   89.3488   12.7751 N.ar    1  UNL1       -0.1328
      8 C          62.3180   90.1738   12.1658 C.ar    1  UNL1        0.1433
      9 C          63.4568   90.8117   12.9048 C.3     1  UNL1        0.0622
     10 C          63.5927   90.6169   14.3858 C.3     1  UNL1        0.0291
     11 C          64.7316   91.2549   15.1248 C.3     1  UNL1        0.0954
     12 N          65.7344   92.0877   14.3826 N.am    1  UNL1       -0.2644
     13 C          66.8733   92.7257   15.1216 C.2     1  UNL1        0.3008
     14 N          67.0092   92.5308   16.6027 N.am    1  UNL1       -0.3132
     15 O          67.8761   93.5584   14.3795 O.2     1  UNL1       -0.2528
     16 C          65.5985   92.2825   12.9016 C.3     1  UNL1        0.0954
     17 C          64.4596   91.6445   12.1626 C.3     1  UNL1        0.0291
     18 H          66.3510   91.9842   17.0897 H       1  UNL1        0.1465
     19 H          67.7567   92.9495   17.0877 H       1  UNL1        0.1465
     20 C          60.5232   86.7033    9.1324 C.3     1  UNL1        0.0294
     21 C          61.9836   86.4818    8.8713 C.3     1  UNL1        0.0730
     22 N          62.6912   85.3209    9.5050 N.3     1  UNL1       -0.2726
     23 C          63.2295   84.1183    8.7880 C.3     1  UNL1        0.0721
     24 C          63.8557   83.2130    9.8070 C.3     1  UNL1        0.0190
     25 C          63.7043   83.8560   11.1537 C.3     1  UNL1        0.0201
     26 C          64.3922   82.7687   11.9248 C.3     1  UNL1        0.0061
     27 C          63.8539   83.9712   12.6418 C.3     1  UNL1        0.0237
     28 C          62.9846   85.1587   10.9671 C.3     1  UNL1        0.0724
     29 C          63.6294   84.7320   13.9149 C.ar    1  UNL1       -0.0225
     30 C          62.7015   84.1877   14.9603 C.ar    1  UNL1       -0.0043
     31 C          62.4770   84.9485   16.2333 C.ar    1  UNL1        0.0035
     32 C          63.1804   86.2536   16.4610 C.ar    1  UNL1        0.0714
     33 C          64.1082   86.7979   15.4157 C.ar    1  UNL1        0.0035
     34 C          64.3327   86.0371   14.1426 C.ar    1  UNL1       -0.0043
     35 C          62.9559   87.0144   17.7341 C.3     1  UNL1        0.4186
     36 F          62.7314   87.7753   19.0073 F       1  UNL1       -0.1659
     37 F          62.4419   85.7667   18.3891 F       1  UNL1       -0.1659
     38 F          63.4698   88.2621   17.0791 F       1  UNL1       -0.1659
@<TRIPOS>BOND
     1     3     4    1
     2     4     5   ar
     3     5     2    1
     4     2     1    1
     5     1    20    1
     6    20    21    1
     7    21    22    1
     8    22    23    1
     9    23    24    1
    10    25    24    1
    11    25    26    1
    12    26    27    1
    13    27    29    1
    14    29    30   ar
    15    30    31   ar
    16    31    32   ar
    17    32    35    1
    18    35    36    1
    19    35    37    1
    20    35    38    1
    21    32    33   ar
    22    33    34   ar
    23    25    28    1
    24     5     6   ar
    25     6     7   ar
    26     7     8   ar
    27     8     9    1
    28     9    10    1
    29    10    11    1
    30    11    12    1
    31    12    13   am
    32    13    14   am
    33    13    15    2
    34    12    16    1
    35    16    17    1
    36     8     4   ar
    37    17     9    1
    38    28    22    1
    39    27    25    1
    40    34    29   ar
    41    14    18    1
    42    14    19    1
@<TRIPOS>MOLECULE
*****
 38 42 0 0 0
SMALL
GASTEIGER

@<TRIPOS>ATOM
      1 C          61.6146   85.8784    9.0792 C.3     1  UNL1        0.0666
      2 S          60.8712   86.7432   10.0536 S.3     1  UNL1       -0.0756
      3 C          63.1298   87.4567   12.2983 C.3     1  UNL1        0.1337
      4 N          62.4226   88.4415   11.4151 N.ar    1  UNL1       -0.2918
      5 C          61.3845   88.1136   10.3833 C.ar    1  UNL1        0.1930
      6 N          60.9496   89.3965    9.7392 N.ar    1  UNL1       -0.1224
      7 N          61.7191   90.5174   10.3728 N.ar    1  UNL1       -0.1328
      8 C          62.6295   89.9272   11.4087 C.ar    1  UNL1        0.1433
      9 C          63.5798   90.6890   12.2843 C.3     1  UNL1        0.0622
     10 C          63.5373   90.5080   13.7727 C.3     1  UNL1        0.0291
     11 C          64.4876   91.2697   14.6483 C.3     1  UNL1        0.0954
     12 N          65.4805   92.2124   14.0353 N.am    1  UNL1       -0.2644
     13 C          66.4308   92.9742   14.9109 C.2     1  UNL1        0.3008
     14 N          66.3883   92.7932   16.3993 N.am    1  UNL1       -0.3132
     15 O          67.4236   93.9169   14.2981 O.2     1  UNL1       -0.2528
     16 C          65.5230   92.3934   12.5469 C.3     1  UNL1        0.0954
     17 C          64.5726   91.6316   11.6713 C.3     1  UNL1        0.0291
     18 H          65.7367   92.1745   16.8016 H       1  UNL1        0.1465
     19 H          67.0120   93.2932   16.9740 H       1  UNL1        0.1465
     20 C          63.0434   85.5067    9.3446 C.3     1  UNL1        0.0294
     21 C          63.5067   84.0983    9.1175 C.3     1  UNL1        0.0730
     22 N          63.4308   83.0951   10.2301 N.3     1  UNL1       -0.2726
     23 C          63.4012   81.6038   10.0720 C.3     1  UNL1        0.0721
     24 C          63.3233   80.9942   11.4404 C.3     1  UNL1        0.0190
     25 C          63.3047   82.1088   12.4441 C.3     1  UNL1        0.0201
     26 C          63.2273   81.2276   13.6555 C.3     1  UNL1        0.0061
     27 C          63.2569   82.7190   13.8135 C.3     1  UNL1        0.0237
     28 C          63.3712   83.4072   11.6960 C.3     1  UNL1        0.0724
     29 C          63.2464   83.9323   14.6953 C.ar    1  UNL1       -0.0225
     30 C          64.3701   84.9231   14.6212 C.ar    1  UNL1       -0.0043
     31 C          64.3596   86.1365   15.5031 C.ar    1  UNL1        0.0035
     32 C          63.2253   86.3590   16.4590 C.ar    1  UNL1        0.0714
     33 C          62.1016   85.3681   16.5332 C.ar    1  UNL1        0.0035
     34 C          62.1121   84.1548   15.6513 C.ar    1  UNL1       -0.0043
     35 C          63.2148   87.5723   17.3409 C.3     1  UNL1        0.4186
     36 F          63.2042   88.7857   18.2228 F       1  UNL1       -0.1659
     37 F          63.6145   88.4246   16.1730 F       1  UNL1       -0.1659
     38 F          62.8150   86.7201   18.5087 F       1  UNL1       -0.1659
@<TRIPOS>BOND
     1     3     4    1
     2     4     5   ar
     3     5     2    1
     4     2     1    1
     5     1    20    1
     6    20    21    1
     7    21    22    1
     8    22    23    1
     9    23    24    1
    10    25    24    1
    11    25    26    1
    12    26    27    1
    13    27    29    1
    14    29    30   ar
    15    30    31   ar
    16    31    32   ar
    17    32    35    1
    18    35    36    1
    19    35    37    1
    20    35    38    1
    21    32    33   ar
    22    33    34   ar
    23    25    28    1
    24     5     6   ar
    25     6     7   ar
    26     7     8   ar
    27     8     9    1
    28     9    10    1
    29    10    11    1
    30    11    12    1
    31    12    13   am
    32    13    14   am
    33    13    15    2
    34    12    16    1
    35    16    17    1
    36     8     4   ar
    37    17     9    1
    38    28    22    1
    39    27    25    1
    40    34    29   ar
    41    14    18    1
    42    14    19    1
@<TRIPOS>MOLECULE
*****
 38 42 0 0 0
SMALL
GASTEIGER

@<TRIPOS>ATOM
      1 C          63.7441   82.6973   14.3833 C.3     1  UNL1        0.0666
      2 S          64.1410   82.1589   13.0407 S.3     1  UNL1       -0.0756
      3 C          62.0230   84.6286   12.7875 C.3     1  UNL1        0.1337
      4 N          62.8835   84.0884   11.6840 N.ar    1  UNL1       -0.2918
      5 C          63.8570   82.9532   11.8004 C.ar    1  UNL1        0.1930
      6 N          64.4968   82.7518   10.4587 N.ar    1  UNL1       -0.1224
      7 N          63.9186   83.7625    9.5131 N.ar    1  UNL1       -0.1328
      8 C          62.9215   84.5886   10.2703 C.ar    1  UNL1        0.1433
      9 C          62.1057   85.7168    9.7120 C.3     1  UNL1        0.0622
     10 C          61.3348   85.5267    8.4394 C.3     1  UNL1        0.0291
     11 C          60.5190   86.6549    7.8810 C.3     1  UNL1        0.0954
     12 N          60.4743   87.9731    8.5953 N.am    1  UNL1       -0.2644
     13 C          59.6585   89.1013    8.0370 C.2     1  UNL1        0.3008
     14 N          58.8876   88.9112    6.7644 N.am    1  UNL1       -0.3132
     15 O          59.6137   90.4196    8.7512 O.2     1  UNL1       -0.2528
     16 C          61.2452   88.1632    9.8679 C.3     1  UNL1        0.0954
     17 C          62.0610   87.0350   10.4262 C.3     1  UNL1        0.0291
     18 H          58.9170   88.0460    6.2956 H       1  UNL1        0.1465
     19 H          58.3522   89.6517    6.3979 H       1  UNL1        0.1465
     20 C          64.6472   83.6534   15.1048 C.3     1  UNL1        0.0294
     21 C          64.8429   85.0437   14.5770 C.3     1  UNL1        0.0730
     22 N          64.2489   86.2129   15.3052 N.3     1  UNL1       -0.2726
     23 C          63.4588   86.1495   16.5786 C.3     1  UNL1        0.0721
     24 C          63.0624   87.5482   16.9482 C.3     1  UNL1        0.0190
     25 C          63.6076   88.4760   15.9032 C.3     1  UNL1        0.0201
     26 C          63.0739   89.7358   16.5182 C.3     1  UNL1        0.0061
     27 C          63.8641   89.7991   15.2448 C.3     1  UNL1        0.0237
     28 C          64.3409   87.6507   14.8878 C.3     1  UNL1        0.0724
     29 C          64.4684   90.5996   14.1294 C.ar    1  UNL1       -0.0225
     30 C          65.8112   91.2432   14.3101 C.ar    1  UNL1       -0.0043
     31 C          66.4155   92.0436   13.1947 C.ar    1  UNL1        0.0035
     32 C          65.6769   92.2005   11.8986 C.ar    1  UNL1        0.0714
     33 C          64.3341   91.5569   11.7179 C.ar    1  UNL1        0.0035
     34 C          63.7298   90.7564   12.8333 C.ar    1  UNL1       -0.0043
     35 C          66.2812   93.0009   10.7832 C.3     1  UNL1        0.4186
     36 F          66.8855   93.8014    9.6678 F       1  UNL1       -0.1659
     37 F          65.1015   93.9270   10.8087 F       1  UNL1       -0.1659
     38 F          67.4609   92.0749   10.7578 F       1  UNL1       -0.1659
@<TRIPOS>BOND
     1     3     4    1
     2     4     5   ar
     3     5     2    1
     4     2     1    1
     5     1    20    1
     6    20    21    1
     7    21    22    1
     8    22    23    1
     9    23    24    1
    10    25    24    1
    11    25    26    1
    12    26    27    1
    13    27    29    1
    14    29    30   ar
    15    30    31   ar
    16    31    32   ar
    17    32    35    1
    18    35    36    1
    19    35    37    1
    20    35    38    1
    21    32    33   ar
    22    33    34   ar
    23    25    28    1
    24     5     6   ar
    25     6     7   ar
    26     7     8   ar
    27     8     9    1
    28     9    10    1
    29    10    11    1
    30    11    12    1
    31    12    13   am
    32    13    14   am
    33    13    15    2
    34    12    16    1
    35    16    17    1
    36     8     4   ar
    37    17     9    1
    38    28    22    1
    39    27    25    1
    40    34    29   ar
    41    14    18    1
    42    14    19    1
@<TRIPOS>MOLECULE
*****
 38 42 0 0 0
SMALL
GASTEIGER

@<TRIPOS>ATOM
      1 C          60.6180   88.1401   10.8980 C.3     1  UNL1        0.0666
      2 S          60.6322   89.6331   10.7545 S.3     1  UNL1       -0.0756
      3 C          62.3883   89.9535   13.4864 C.3     1  UNL1        0.1337
      4 N          62.7288   90.5346   12.1461 N.ar    1  UNL1       -0.2918
      5 C          61.9216   90.3873   10.8904 C.ar    1  UNL1        0.1930
      6 N          62.6302   91.1267    9.7944 N.ar    1  UNL1       -0.1224
      7 N          63.8753   91.7310   10.3727 N.ar    1  UNL1       -0.1328
      8 C          63.9363   91.3651   11.8262 C.ar    1  UNL1        0.1433
      9 C          65.0153   91.7603   12.7903 C.3     1  UNL1        0.0622
     10 C          65.7204   93.0744   12.6295 C.3     1  UNL1        0.0291
     11 C          66.7994   93.4696   13.5937 C.3     1  UNL1        0.0954
     12 N          67.1733   92.5505   14.7187 N.am    1  UNL1       -0.2644
     13 C          68.2523   92.9456   15.6829 C.2     1  UNL1        0.3008
     14 N          68.9573   94.2598   15.5221 N.am    1  UNL1       -0.3132
     15 O          68.6262   92.0266   16.8078 O.2     1  UNL1       -0.2528
     16 C          66.4682   91.2363   14.8795 C.3     1  UNL1        0.0954
     17 C          65.3892   90.8412   13.9153 C.3     1  UNL1        0.0291
     18 H          68.7119   94.8630   14.7837 H       1  UNL1        0.1465
     19 H          69.6655   94.5191   16.1549 H       1  UNL1        0.1465
     20 C          60.4222   87.2723    9.6902 C.3     1  UNL1        0.0294
     21 C          61.6118   86.7644    8.9307 C.3     1  UNL1        0.0730
     22 N          62.4164   85.6210    9.4742 N.3     1  UNL1       -0.2726
     23 C          62.9991   84.4940    8.6741 C.3     1  UNL1        0.0721
     24 C          63.7223   83.5804    9.6187 C.3     1  UNL1        0.0190
     25 C          63.5866   84.1428   11.0027 C.3     1  UNL1        0.0201
     26 C          64.3725   83.0645   11.6879 C.3     1  UNL1        0.0061
     27 C          63.7898   84.1915   12.4880 C.3     1  UNL1        0.0237
     28 C          62.7795   85.4040   10.9134 C.3     1  UNL1        0.0724
     29 C          63.5707   84.8703   13.8076 C.ar    1  UNL1       -0.0225
     30 C          64.2696   86.1623   14.1116 C.ar    1  UNL1       -0.0043
     31 C          64.0505   86.8411   15.4311 C.ar    1  UNL1        0.0035
     32 C          63.1325   86.2280   16.4466 C.ar    1  UNL1        0.0714
     33 C          62.4336   84.9360   16.1426 C.ar    1  UNL1        0.0035
     34 C          62.6527   84.2572   14.8231 C.ar    1  UNL1       -0.0043
     35 C          62.9134   86.9068   17.7661 C.3     1  UNL1        0.4186
     36 F          62.6943   87.5857   19.0857 F       1  UNL1       -0.1659
     37 F          62.3818   85.6256   18.3370 F       1  UNL1       -0.1659
     38 F          63.4450   88.1880   17.1953 F       1  UNL1       -0.1659
@<TRIPOS>BOND
     1     3     4    1
     2     4     5   ar
     3     5     2    1
     4     2     1    1
     5     1    20    1
     6    20    21    1
     7    21    22    1
     8    22    23    1
     9    23    24    1
    10    25    24    1
    11    25    26    1
    12    26    27    1
    13    27    29    1
    14    29    30   ar
    15    30    31   ar
    16    31    32   ar
    17    32    35    1
    18    35    36    1
    19    35    37    1
    20    35    38    1
    21    32    33   ar
    22    33    34   ar
    23    25    28    1
    24     5     6   ar
    25     6     7   ar
    26     7     8   ar
    27     8     9    1
    28     9    10    1
    29    10    11    1
    30    11    12    1
    31    12    13   am
    32    13    14   am
    33    13    15    2
    34    12    16    1
    35    16    17    1
    36     8     4   ar
    37    17     9    1
    38    28    22    1
    39    27    25    1
    40    34    29   ar
    41    14    18    1
    42    14    19    1
@<TRIPOS>MOLECULE
*****
 38 42 0 0 0
SMALL
GASTEIGER

@<TRIPOS>ATOM
      1 C          58.7866   91.0193    4.8255 C.3     1  UNL1        0.0666
      2 S          59.3633   92.3501    4.4430 S.3     1  UNL1       -0.0756
      3 C          60.0438   94.3577    1.9619 C.3     1  UNL1        0.1337
      4 N          60.9739   93.3405    2.5536 N.ar    1  UNL1       -0.2918
      5 C          60.6612   92.4177    3.6940 C.ar    1  UNL1        0.1930
      6 N          61.8741   91.5743    3.9540 N.ar    1  UNL1       -0.1224
      7 N          62.9365   91.9759    2.9742 N.ar    1  UNL1       -0.1328
      8 C          62.3803   93.0674    2.1087 C.ar    1  UNL1        0.1433
      9 C          63.1033   93.7636    0.9940 C.3     1  UNL1        0.0622
     10 C          62.6812   93.5411   -0.4281 C.3     1  UNL1        0.0291
     11 C          63.4043   94.2373   -1.5428 C.3     1  UNL1        0.0954
     12 N          64.5495   95.1561   -1.2352 N.am    1  UNL1       -0.2644
     13 C          65.2725   95.8523   -2.3499 C.2     1  UNL1        0.3008
     14 N          64.8504   95.6297   -3.7720 N.am    1  UNL1       -0.3132
     15 O          66.4176   96.7711   -2.0425 O.2     1  UNL1       -0.2528
     16 C          64.9715   95.3787    0.1868 C.3     1  UNL1        0.0954
     17 C          64.2484   94.6824    1.3015 C.3     1  UNL1        0.0291
     18 H          64.0989   95.0267   -3.9737 H       1  UNL1        0.1465
     19 H          65.3250   96.0867   -4.5036 H       1  UNL1        0.1465
     20 C          59.5323   90.1218    5.7681 C.3     1  UNL1        0.0294
     21 C          58.8808   89.6608    7.0382 C.3     1  UNL1        0.0730
     22 N          59.5057   88.5620    7.8457 N.3     1  UNL1       -0.2726
     23 C          59.1786   87.1013    7.7489 C.3     1  UNL1        0.0721
     24 C          60.0382   86.3675    8.7352 C.3     1  UNL1        0.0190
     25 C          60.8966   87.3747    9.4415 C.3     1  UNL1        0.0201
     26 C          61.6078   86.3872   10.3184 C.3     1  UNL1        0.0061
     27 C          61.9349   87.8479   10.4151 C.3     1  UNL1        0.0237
     28 C          60.5675   88.7310    8.8917 C.3     1  UNL1        0.0724
     29 C          62.7232   88.9644   11.0331 C.ar    1  UNL1       -0.0225
     30 C          63.1588   88.8716   12.4655 C.ar    1  UNL1       -0.0043
     31 C          63.9471   89.9881   13.0834 C.ar    1  UNL1        0.0035
     32 C          64.2999   91.1974   12.2690 C.ar    1  UNL1        0.0714
     33 C          63.8643   91.2901   10.8366 C.ar    1  UNL1        0.0035
     34 C          63.0760   90.1736   10.2187 C.ar    1  UNL1       -0.0043
     35 C          65.0882   92.3139   12.8870 C.3     1  UNL1        0.4186
     36 F          65.8766   93.4305   13.5050 F       1  UNL1       -0.1659
     37 F          65.1421   91.5591   14.1821 F       1  UNL1       -0.1659
     38 F          65.0344   93.0687   11.5919 F       1  UNL1       -0.1659
@<TRIPOS>BOND
     1     3     4    1
     2     4     5   ar
     3     5     2    1
     4     2     1    1
     5     1    20    1
     6    20    21    1
     7    21    22    1
     8    22    23    1
     9    23    24    1
    10    25    24    1
    11    25    26    1
    12    26    27    1
    13    27    29    1
    14    29    30   ar
    15    30    31   ar
    16    31    32   ar
    17    32    35    1
    18    35    36    1
    19    35    37    1
    20    35    38    1
    21    32    33   ar
    22    33    34   ar
    23    25    28    1
    24     5     6   ar
    25     6     7   ar
    26     7     8   ar
    27     8     9    1
    28     9    10    1
    29    10    11    1
    30    11    12    1
    31    12    13   am
    32    13    14   am
    33    13    15    2
    34    12    16    1
    35    16    17    1
    36     8     4   ar
    37    17     9    1
    38    28    22    1
    39    27    25    1
    40    34    29   ar
    41    14    18    1
    42    14    19    1
@<TRIPOS>MOLECULE
*****
 38 42 0 0 0
SMALL
GASTEIGER

@<TRIPOS>ATOM
      1 C          59.0707   90.3128    5.6604 C.3     1  UNL1        0.0666
      2 S          60.3847   90.8780    5.2089 S.3     1  UNL1       -0.0756
      3 C          62.9378   91.4363    3.2545 C.3     1  UNL1        0.1337
      4 N          61.6027   92.1156    3.1767 N.ar    1  UNL1       -0.2918
      5 C          60.4292   91.8590    4.0750 C.ar    1  UNL1        0.1930
      6 N          59.3079   92.7556    3.6403 N.ar    1  UNL1       -0.1224
      7 N          59.7885   93.5663    2.4734 N.ar    1  UNL1       -0.1328
      8 C          61.2068   93.1708    2.1868 C.ar    1  UNL1        0.1433
      9 C          62.0763   93.7320    1.1010 C.3     1  UNL1        0.0622
     10 C          61.9552   93.2122   -0.3008 C.3     1  UNL1        0.0291
     11 C          62.8248   93.7734   -1.3866 C.3     1  UNL1        0.0954
     12 N          63.8155   94.8544   -1.0704 N.am    1  UNL1       -0.2644
     13 C          64.6851   95.4156   -2.1562 C.2     1  UNL1        0.3008
     14 N          64.5640   94.8958   -3.5580 N.am    1  UNL1       -0.3132
     15 O          65.6759   96.4966   -1.8401 O.2     1  UNL1       -0.2528
     16 C          63.9367   95.3742    0.3314 C.3     1  UNL1        0.0954
     17 C          63.0670   94.8130    1.4171 C.3     1  UNL1        0.0291
     18 H          63.9137   94.1863   -3.7655 H       1  UNL1        0.1465
     19 H          65.1347   95.2641   -4.2706 H       1  UNL1        0.1465
     20 C          59.0362   89.2371    6.7053 C.3     1  UNL1        0.0294
     21 C          59.7870   89.4165    7.9914 C.3     1  UNL1        0.0730
     22 N          60.3758   88.2259    8.6885 N.3     1  UNL1       -0.2726
     23 C          60.1552   86.7892    8.3182 C.3     1  UNL1        0.0721
     24 C          60.9317   85.9385    9.2790 C.3     1  UNL1        0.0190
     25 C          61.6322   86.8494   10.2432 C.3     1  UNL1        0.0201
     26 C          62.2911   85.7606   11.0371 C.3     1  UNL1        0.0061
     27 C          62.5117   87.1973   11.4074 C.3     1  UNL1        0.0237
     28 C          61.2886   88.2631    9.8782 C.3     1  UNL1        0.0724
     29 C          63.1468   88.2277   12.2934 C.ar    1  UNL1       -0.0225
     30 C          63.1300   89.6734   11.8938 C.ar    1  UNL1       -0.0043
     31 C          63.7651   90.7038   12.7798 C.ar    1  UNL1        0.0035
     32 C          64.4169   90.2885   14.0653 C.ar    1  UNL1        0.0714
     33 C          64.4337   88.8427   14.4649 C.ar    1  UNL1        0.0035
     34 C          63.7986   87.8124   13.5789 C.ar    1  UNL1       -0.0043
     35 C          65.0520   91.3188   14.9513 C.3     1  UNL1        0.4186
     36 F          65.6872   92.3493   15.8373 F       1  UNL1       -0.1659
     37 F          63.9540   91.1318   15.9559 F       1  UNL1       -0.1659
     38 F          66.1501   91.5059   13.9467 F       1  UNL1       -0.1659
@<TRIPOS>BOND
     1     3     4    1
     2     4     5   ar
     3     5     2    1
     4     2     1    1
     5     1    20    1
     6    20    21    1
     7    21    22    1
     8    22    23    1
     9    23    24    1
    10    25    24    1
    11    25    26    1
    12    26    27    1
    13    27    29    1
    14    29    30   ar
    15    30    31   ar
    16    31    32   ar
    17    32    35    1
    18    35    36    1
    19    35    37    1
    20    35    38    1
    21    32    33   ar
    22    33    34   ar
    23    25    28    1
    24     5     6   ar
    25     6     7   ar
    26     7     8   ar
    27     8     9    1
    28     9    10    1
    29    10    11    1
    30    11    12    1
    31    12    13   am
    32    13    14   am
    33    13    15    2
    34    12    16    1
    35    16    17    1
    36     8     4   ar
    37    17     9    1
    38    28    22    1
    39    27    25    1
    40    34    29   ar
    41    14    18    1
    42    14    19    1
@<TRIPOS>MOLECULE
*****
 38 42 0 0 0
SMALL
GASTEIGER

@<TRIPOS>ATOM
      1 C          60.4206   90.0970    9.2220 C.3     1  UNL1        0.0666
      2 S          59.9849   88.7648    8.6879 S.3     1  UNL1       -0.0756
      3 C          60.5868   87.4851   11.6290 C.3     1  UNL1        0.1337
      4 N          61.0826   86.9524   10.3174 N.ar    1  UNL1       -0.2918
      5 C          60.8060   87.5406    8.9655 C.ar    1  UNL1        0.1930
      6 N          61.4946   86.6897    7.9400 N.ar    1  UNL1       -0.1224
      7 N          62.1968   85.5755    8.6580 N.ar    1  UNL1       -0.1328
      8 C          61.9423   85.7378   10.1273 C.ar    1  UNL1        0.1433
      9 C          62.4569   84.8428   11.2155 C.3     1  UNL1        0.0622
     10 C          63.1368   85.4345   12.4145 C.3     1  UNL1        0.0291
     11 C          63.6515   84.5395   13.5026 C.3     1  UNL1        0.0954
     12 N          63.4862   83.0527   13.3917 N.am    1  UNL1       -0.2644
     13 C          64.0008   82.1577   14.4798 C.2     1  UNL1        0.3008
     14 N          64.6808   82.7494   15.6788 N.am    1  UNL1       -0.3132
     15 O          63.8356   80.6710   14.3690 O.2     1  UNL1       -0.2528
     16 C          62.8063   82.4610   12.1927 C.3     1  UNL1        0.0954
     17 C          62.2916   83.3561   11.1046 C.3     1  UNL1        0.0291
     18 H          64.7892   83.7252   15.7516 H       1  UNL1        0.1465
     19 H          65.0185   82.1620   16.3930 H       1  UNL1        0.1465
     20 C          61.6761   90.2046   10.0358 C.3     1  UNL1        0.0294
     21 C          62.7681   91.1408    9.6101 C.3     1  UNL1        0.0730
     22 N          63.7721   91.6274   10.6127 N.3     1  UNL1       -0.2726
     23 C          64.7442   92.7520   10.4125 C.3     1  UNL1        0.0721
     24 C          65.5531   92.8944   11.6676 C.3     1  UNL1        0.0190
     25 C          65.0809   91.8578   12.6436 C.3     1  UNL1        0.0201
     26 C          66.0300   92.2334   13.7427 C.3     1  UNL1        0.0061
     27 C          65.0578   91.1088   13.9430 C.3     1  UNL1        0.0237
     28 C          63.9801   91.0747   11.9916 C.3     1  UNL1        0.0724
     29 C          64.4832   90.0270   14.8088 C.ar    1  UNL1       -0.0225
     30 C          63.6731   90.3860   16.0191 C.ar    1  UNL1       -0.0043
     31 C          63.0985   89.3042   16.8848 C.ar    1  UNL1        0.0035
     32 C          63.3340   87.8635   16.5403 C.ar    1  UNL1        0.0714
     33 C          64.1441   87.5045   15.3300 C.ar    1  UNL1        0.0035
     34 C          64.7187   88.5862   14.4642 C.ar    1  UNL1       -0.0043
     35 C          62.7594   86.7817   17.4061 C.3     1  UNL1        0.4186
     36 F          62.1848   85.6999   18.2719 F       1  UNL1       -0.1659
     37 F          62.8963   87.6701   18.6069 F       1  UNL1       -0.1659
     38 F          62.6225   85.8933   16.2052 F       1  UNL1       -0.1659
@<TRIPOS>BOND
     1     3     4    1
     2     4     5   ar
     3     5     2    1
     4     2     1    1
     5     1    20    1
     6    20    21    1
     7    21    22    1
     8    22    23    1
     9    23    24    1
    10    25    24    1
    11    25    26    1
    12    26    27    1
    13    27    29    1
    14    29    30   ar
    15    30    31   ar
    16    31    32   ar
    17    32    35    1
    18    35    36    1
    19    35    37    1
    20    35    38    1
    21    32    33   ar
    22    33    34   ar
    23    25    28    1
    24     5     6   ar
    25     6     7   ar
    26     7     8   ar
    27     8     9    1
    28     9    10    1
    29    10    11    1
    30    11    12    1
    31    12    13   am
    32    13    14   am
    33    13    15    2
    34    12    16    1
    35    16    17    1
    36     8     4   ar
    37    17     9    1
    38    28    22    1
    39    27    25    1
    40    34    29   ar
    41    14    18    1
    42    14    19    1
@<TRIPOS>MOLECULE
*****
 38 42 0 0 0
SMALL
GASTEIGER

@<TRIPOS>ATOM
      1 C          59.5853   90.1166    5.9181 C.3     1  UNL1        0.0666
      2 S          59.0646   89.1964    6.9821 S.3     1  UNL1       -0.0756
      3 C          60.0876   86.1645    7.6231 C.3     1  UNL1        0.1337
      4 N          60.4225   87.3939    8.4146 N.ar    1  UNL1       -0.2918
      5 C          59.9523   88.7874    8.1200 C.ar    1  UNL1        0.1930
      6 N          60.5256   89.7004    9.1630 N.ar    1  UNL1       -0.1224
      7 N          61.3501   88.8710   10.1023 N.ar    1  UNL1       -0.1328
      8 C          61.2864   87.4454    9.6398 C.ar    1  UNL1        0.1433
      9 C          61.9671   86.2767   10.2885 C.3     1  UNL1        0.0622
     10 C          61.8154   86.0440   11.7626 C.3     1  UNL1        0.0291
     11 C          62.4961   84.8753   12.4113 C.3     1  UNL1        0.0954
     12 N          63.3285   83.9394   11.5859 N.am    1  UNL1       -0.2644
     13 C          64.0092   82.7707   12.2346 C.2     1  UNL1        0.3008
     14 N          63.8575   82.5380   13.7087 N.am    1  UNL1       -0.3132
     15 O          64.8416   81.8348   11.4093 O.2     1  UNL1       -0.2528
     16 C          63.4802   84.1722   10.1119 C.3     1  UNL1        0.0954
     17 C          62.7995   85.3409    9.4632 C.3     1  UNL1        0.0291
     18 H          63.3111   83.1522   14.2503 H       1  UNL1        0.1465
     19 H          64.3042   81.7709   14.1344 H       1  UNL1        0.1465
     20 C          58.6464   91.0403    5.2002 C.3     1  UNL1        0.0294
     21 C          59.1281   92.3793    4.7257 C.3     1  UNL1        0.0730
     22 N          59.9205   92.4846    3.4564 N.3     1  UNL1       -0.2726
     23 C          61.3754   92.1572    3.2956 C.3     1  UNL1        0.0721
     24 C          61.7511   92.4062    1.8649 C.3     1  UNL1        0.0190
     25 C          60.5283   92.8875    1.1415 C.3     1  UNL1        0.0201
     26 C          61.1885   93.0426   -0.1964 C.3     1  UNL1        0.0061
     27 C          59.7335   93.3700   -0.0355 C.3     1  UNL1        0.0237
     28 C          59.3969   92.9360    2.1252 C.3     1  UNL1        0.0724
     29 C          58.4346   93.8376   -0.6222 C.ar    1  UNL1       -0.0225
     30 C          57.4036   92.8374   -1.0542 C.ar    1  UNL1       -0.0043
     31 C          56.1047   93.3050   -1.6409 C.ar    1  UNL1        0.0035
     32 C          55.8369   94.7728   -1.7956 C.ar    1  UNL1        0.0714
     33 C          56.8679   95.7730   -1.3635 C.ar    1  UNL1        0.0035
     34 C          58.1668   95.3054   -0.7769 C.ar    1  UNL1       -0.0043
     35 C          54.5380   95.2404   -2.3823 C.3     1  UNL1        0.4186
     36 F          53.2391   95.7080   -2.9690 F       1  UNL1       -0.1659
     37 F          53.9688   95.3903   -1.0026 F       1  UNL1       -0.1659
     38 F          55.1072   95.0906   -3.7619 F       1  UNL1       -0.1659
@<TRIPOS>BOND
     1     3     4    1
     2     4     5   ar
     3     5     2    1
     4     2     1    1
     5     1    20    1
     6    20    21    1
     7    21    22    1
     8    22    23    1
     9    23    24    1
    10    25    24    1
    11    25    26    1
    12    26    27    1
    13    27    29    1
    14    29    30   ar
    15    30    31   ar
    16    31    32   ar
    17    32    35    1
    18    35    36    1
    19    35    37    1
    20    35    38    1
    21    32    33   ar
    22    33    34   ar
    23    25    28    1
    24     5     6   ar
    25     6     7   ar
    26     7     8   ar
    27     8     9    1
    28     9    10    1
    29    10    11    1
    30    11    12    1
    31    12    13   am
    32    13    14   am
    33    13    15    2
    34    12    16    1
    35    16    17    1
    36     8     4   ar
    37    17     9    1
    38    28    22    1
    39    27    25    1
    40    34    29   ar
    41    14    18    1
    42    14    19    1
