@<TRIPOS>MOLECULE
*****
 27 27 0 0 0
SMALL
GASTEIGER

@<TRIPOS>ATOM
      1 C          61.8545   86.0636   10.7660 C.3     0  UNK0        0.1513
      2 N          62.4545   84.9658   13.0430 N.am    1  LEU1       -0.2982
      3 C          62.4904   84.9496   11.5436 C.2     0  UNK0        0.2386
      4 O          63.1623   83.8194   10.8217 O.2     0  UNK0       -0.2736
      5 H          62.0135   85.7077   13.5168 H       1  LEU1        0.1498
      6 CA         63.0904   83.8518   13.8206 C.3     1  LEU1        0.1368
      7 C          64.5838   83.7791   13.9419 C.2     1  LEU1        0.2266
      8 O          65.3477   84.9394   14.5077 O.2     1  LEU1       -0.2865
      9 CB         62.2331   82.8106   14.4769 C.3     1  LEU1        0.0276
     10 CD1        62.8300   81.0339   12.6778 C.3     1  LEU1        0.0001
     11 CG         61.9117   81.5376   13.7516 C.3     1  LEU1        0.0021
     12 CD2        60.6720   80.7684   14.0999 C.3     1  LEU1        0.0001
     13 C          61.7328   85.9628    9.2743 C.3     0  UNK0        0.0249
     14 C          60.4116   86.2162    8.6107 C.3     0  UNK0        0.0019
     15 C          62.9323   85.6087    8.4462 C.3     0  UNK0        0.0019
     16 N          61.3402   87.2783   11.4800 N.3     0  UNK0       -0.1720
     17 H          61.1500   86.9962   12.4416 H       0  UNK0        0.1493
     18 S          62.1808   88.5187   11.5509 S.O2    0  UNK0        0.0606
     19 O          63.0822   87.8509   12.5467 O.2     0  UNK0       -0.1530
     20 O          61.2794   89.1865   10.5552 O.2     0  UNK0       -0.1530
     21 C          63.0214   89.7590   11.6218 C.ar    0  UNK0        0.1221
     22 C          63.1587   90.6418   10.4170 C.ar    0  UNK0        0.0222
     23 C          63.9993   91.8821   10.4879 C.ar    0  UNK0        0.0310
     24 C          64.7025   92.2396   11.7636 C.ar    0  UNK0        0.1402
     25 F          65.5431   93.4799   11.8345 F       0  UNK0       -0.2042
     26 C          64.5652   91.3568   12.9684 C.ar    0  UNK0        0.0310
     27 C          63.7246   90.1165   12.8976 C.ar    0  UNK0        0.0222
@<TRIPOS>BOND
     1    10    11    1
     2    11    12    1
     3    11     9    1
     4     6     9    1
     5     6     7    1
     6     7     8    2
     7     6     2    1
     8     2     3   am
     9     3     4    2
    10     3     1    1
    11     1    16    1
    12    16    18    1
    13    18    19    2
    14    18    20    2
    15    18    21    1
    16    21    22   ar
    17    22    23   ar
    18    23    24   ar
    19    24    25    1
    20    24    26   ar
    21    26    27   ar
    22     1    13    1
    23    13    14    1
    24    13    15    1
    25    27    21   ar
    26     2     5    1
    27    16    17    1
@<TRIPOS>MOLECULE
*****
 27 27 0 0 0
SMALL
GASTEIGER

@<TRIPOS>ATOM
      1 C          63.7250   90.3946   13.5685 C.3     0  UNK0        0.1513
      2 N          65.0331   92.0846   12.0909 N.am    1  LEU1       -0.2982
      3 C          64.9538   91.2156   13.3110 C.2     0  UNK0        0.2386
      4 O          66.1032   91.1676   14.2736 O.2     0  UNK0       -0.2736
      5 H          64.2787   92.1161   11.4592 H       1  LEU1        0.1498
      6 CA         66.2619   92.9056   11.8335 C.3     1  LEU1        0.1368
      7 C          66.3769   94.2849   12.4115 C.2     1  LEU1        0.2266
      8 O          66.2861   94.4864   13.8951 O.2     1  LEU1       -0.2865
      9 CB         67.3754   92.3472   10.9980 C.3     1  LEU1        0.0276
     10 CD1        68.7442   92.3486    8.7896 C.3     1  LEU1        0.0001
     11 CG         67.7076   92.9732    9.6759 C.3     1  LEU1        0.0021
     12 CD2        67.0032   94.2238    9.2401 C.3     1  LEU1        0.0001
     13 C          63.7520   89.3082   14.6023 C.3     0  UNK0        0.0249
     14 C          64.2583   87.9428   14.2424 C.3     0  UNK0        0.0019
     15 C          63.2728   89.5870   15.9960 C.3     0  UNK0        0.0019
     16 N          62.4694   90.6601   12.7921 N.3     0  UNK0       -0.1720
     17 H          62.6146   91.5344   12.2873 H       0  UNK0        0.1493
     18 S          61.9814   89.6570   11.7893 S.O2    0  UNK0        0.0606
     19 O          63.1972   89.9074   10.9472 O.2     0  UNK0       -0.1530
     20 O          60.7656   89.4066   12.6314 O.2     0  UNK0       -0.1530
     21 C          61.4933   88.6539   10.7865 C.ar    0  UNK0        0.1221
     22 C          60.5586   89.0798    9.6934 C.ar    0  UNK0        0.0222
     23 C          60.0706   88.0767    8.6906 C.ar    0  UNK0        0.0310
     24 C          60.5173   86.6477    8.7809 C.ar    0  UNK0        0.1402
     25 F          60.0293   85.6446    7.7781 F       0  UNK0       -0.2042
     26 C          61.4520   86.2217    9.8739 C.ar    0  UNK0        0.0310
     27 C          61.9401   87.2248   10.8767 C.ar    0  UNK0        0.0222
@<TRIPOS>BOND
     1    10    11    1
     2    11    12    1
     3    11     9    1
     4     6     9    1
     5     6     7    1
     6     7     8    2
     7     6     2    1
     8     2     3   am
     9     3     4    2
    10     3     1    1
    11     1    16    1
    12    16    18    1
    13    18    19    2
    14    18    20    2
    15    18    21    1
    16    21    22   ar
    17    22    23   ar
    18    23    24   ar
    19    24    25    1
    20    24    26   ar
    21    26    27   ar
    22     1    13    1
    23    13    14    1
    24    13    15    1
    25    27    21   ar
    26     2     5    1
    27    16    17    1
@<TRIPOS>MOLECULE
*****
 27 27 0 0 0
SMALL
GASTEIGER

@<TRIPOS>ATOM
      1 C          63.0890   83.1834   13.3213 C.3     0  UNK0        0.1513
      2 N          62.0090   85.3415   12.3589 N.am    1  LEU1       -0.2982
      3 C          62.9057   84.1511   12.1899 C.2     0  UNK0        0.2386
      4 O          63.6193   83.9283   10.8894 O.2     0  UNK0       -0.2736
      5 H          61.5406   85.4877   13.2125 H       1  LEU1        0.1498
      6 CA         61.8257   86.3092   11.2275 C.3     1  LEU1        0.1368
      7 C          62.5863   87.6020   11.2157 C.2     1  LEU1        0.2266
      8 O          62.0686   88.7838   11.9807 O.2     1  LEU1       -0.2865
      9 CB         60.8819   85.9841   10.1079 C.3     1  LEU1        0.0276
     10 CD1        60.4360   86.1709    7.5552 C.3     1  LEU1        0.0001
     11 CG         61.3828   85.9363    8.6949 C.3     1  LEU1        0.0021
     12 CD2        62.8303   85.6538    8.4213 C.3     1  LEU1        0.0001
     13 C          62.5194   81.7992   13.2240 C.3     0  UNK0        0.0249
     14 C          62.9373   80.8932   12.1038 C.3     0  UNK0        0.0019
     15 C          61.5319   81.3208   14.2467 C.3     0  UNK0        0.0019
     16 N          63.8417   83.5999   14.5500 N.3     0  UNK0       -0.1720
     17 H          64.8273   83.4079   14.3707 H       0  UNK0        0.1493
     18 S          63.7581   85.0163   15.0367 S.O2    0  UNK0        0.0606
     19 O          65.1863   85.2385   14.6356 O.2     0  UNK0       -0.1530
     20 O          62.3299   84.7941   15.4379 O.2     0  UNK0       -0.1530
     21 C          63.6744   86.4327   15.5234 C.ar    0  UNK0        0.1221
     22 C          63.0478   86.7332   16.8527 C.ar    0  UNK0        0.0222
     23 C          62.9641   88.1496   17.3394 C.ar    0  UNK0        0.0310
     24 C          63.5071   89.2654   16.4968 C.ar    0  UNK0        0.1402
     25 F          63.4234   90.6818   16.9835 F       0  UNK0       -0.2042
     26 C          64.1337   88.9649   15.1675 C.ar    0  UNK0        0.0310
     27 C          64.2174   87.5486   14.6808 C.ar    0  UNK0        0.0222
@<TRIPOS>BOND
     1    10    11    1
     2    11    12    1
     3    11     9    1
     4     6     9    1
     5     6     7    1
     6     7     8    2
     7     6     2    1
     8     2     3   am
     9     3     4    2
    10     3     1    1
    11     1    16    1
    12    16    18    1
    13    18    19    2
    14    18    20    2
    15    18    21    1
    16    21    22   ar
    17    22    23   ar
    18    23    24   ar
    19    24    25    1
    20    24    26   ar
    21    26    27   ar
    22     1    13    1
    23    13    14    1
    24    13    15    1
    25    27    21   ar
    26     2     5    1
    27    16    17    1
@<TRIPOS>MOLECULE
*****
 27 27 0 0 0
SMALL
GASTEIGER

@<TRIPOS>ATOM
      1 C          63.6592   90.5123   13.3308 C.3     0  UNK0        0.1513
      2 N          65.0443   92.1728   11.8905 N.am    1  LEU1       -0.2982
      3 C          64.8835   91.3576   13.1393 C.2     0  UNK0        0.2386
      4 O          65.9471   91.3876   14.1967 O.2     0  UNK0       -0.2736
      5 H          64.3462   92.1531   11.1965 H       1  LEU1        0.1498
      6 CA         66.2686   93.0181   11.6990 C.3     1  LEU1        0.1368
      7 C          66.3094   94.4140   12.2465 C.2     1  LEU1        0.2266
      8 O          66.2582   94.6401   13.7285 O.2     1  LEU1       -0.2865
      9 CB         67.4521   92.4674   10.9600 C.3     1  LEU1        0.0276
     10 CD1        67.2174   94.2931    9.1264 C.3     1  LEU1        0.0001
     11 CG         67.7951   92.9911    9.5969 C.3     1  LEU1        0.0021
     12 CD2        68.7159   92.2130    8.7043 C.3     1  LEU1        0.0001
     13 C          63.6688   89.3939   14.3303 C.3     0  UNK0        0.0249
     14 C          63.2917   89.6602   15.7575 C.3     0  UNK0        0.0019
     15 C          64.0556   88.0092   13.9026 C.3     0  UNK0        0.0019
     16 N          62.4253   90.7856   12.5229 N.3     0  UNK0       -0.1720
     17 H          62.6085   91.6309   11.9822 H       0  UNK0        0.1493
     18 S          61.9175   89.7558   11.5576 S.O2    0  UNK0        0.0606
     19 O          60.7756   89.4525   12.4818 O.2     0  UNK0       -0.1530
     20 O          63.0595   90.0590   10.6335 O.2     0  UNK0       -0.1530
     21 C          61.4098   88.7260   10.5924 C.ar    0  UNK0        0.1221
     22 C          61.8012   87.2872   10.7560 C.ar    0  UNK0        0.0222
     23 C          61.2934   86.2574    9.7907 C.ar    0  UNK0        0.0310
     24 C          60.3943   86.6664    8.6619 C.ar    0  UNK0        0.1402
     25 F          59.8866   85.6366    7.6966 F       0  UNK0       -0.2042
     26 C          60.0029   88.1051    8.4983 C.ar    0  UNK0        0.0310
     27 C          60.5107   89.1349    9.4636 C.ar    0  UNK0        0.0222
@<TRIPOS>BOND
     1    10    11    1
     2    11    12    1
     3    11     9    1
     4     6     9    1
     5     6     7    1
     6     7     8    2
     7     6     2    1
     8     2     3   am
     9     3     4    2
    10     3     1    1
    11     1    16    1
    12    16    18    1
    13    18    19    2
    14    18    20    2
    15    18    21    1
    16    21    22   ar
    17    22    23   ar
    18    23    24   ar
    19    24    25    1
    20    24    26   ar
    21    26    27   ar
    22     1    13    1
    23    13    14    1
    24    13    15    1
    25    27    21   ar
    26     2     5    1
    27    16    17    1
@<TRIPOS>MOLECULE
*****
 27 27 0 0 0
SMALL
GASTEIGER

@<TRIPOS>ATOM
      1 C          60.8106   87.8210    9.9043 C.3     0  UNK0        0.1513
      2 N          61.6368   86.2542   11.8050 N.am    1  LEU1       -0.2982
      3 C          61.7259   86.7350   10.3870 C.2     0  UNK0        0.2386
      4 O          62.7303   86.1298    9.4516 O.2     0  UNK0       -0.2736
      5 H          60.9775   86.6515   12.4190 H       1  LEU1        0.1498
      6 CA         62.5521   85.1683   12.2878 C.3     1  LEU1        0.1368
      7 C          63.5639   85.4600   13.3560 C.2     1  LEU1        0.2266
      8 O          63.8204   86.8759   13.7796 O.2     1  LEU1       -0.2865
      9 CB         62.4555   83.7907   11.7023 C.3     1  LEU1        0.0276
     10 CD1        64.3772   83.0623   10.1127 C.3     1  LEU1        0.0001
     11 CG         63.7012   82.9940   11.4500 C.3     1  LEU1        0.0021
     12 CD2        64.2709   82.1291   12.5351 C.3     1  LEU1        0.0001
     13 C          60.0693   87.6570    8.6106 C.3     0  UNK0        0.0249
     14 C          59.6239   88.8664    7.8429 C.3     0  UNK0        0.0019
     15 C          59.7734   86.2838    8.0846 C.3     0  UNK0        0.0019
     16 N          60.6367   89.0708   10.7152 N.3     0  UNK0       -0.1720
     17 H          60.1179   88.8082   11.5532 H       0  UNK0        0.1493
     18 S          61.8395   89.8406   11.1740 S.O2    0  UNK0        0.0606
     19 O          61.6232   89.3448   12.5731 O.2     0  UNK0       -0.1530
     20 O          62.0559   90.3364    9.7750 O.2     0  UNK0       -0.1530
     21 C          63.0424   90.6104   11.6329 C.ar    0  UNK0        0.1221
     22 C          63.5253   90.4748   13.0465 C.ar    0  UNK0        0.0222
     23 C          64.7281   91.2446   13.5053 C.ar    0  UNK0        0.0310
     24 C          65.4481   92.1501   12.5505 C.ar    0  UNK0        0.1402
     25 F          66.6509   92.9199   13.0094 F       0  UNK0       -0.2042
     26 C          64.9652   92.2858   11.1369 C.ar    0  UNK0        0.0310
     27 C          63.7623   91.5159   10.6781 C.ar    0  UNK0        0.0222
@<TRIPOS>BOND
     1    10    11    1
     2    11    12    1
     3    11     9    1
     4     6     9    1
     5     6     7    1
     6     7     8    2
     7     6     2    1
     8     2     3   am
     9     3     4    2
    10     3     1    1
    11     1    16    1
    12    16    18    1
    13    18    19    2
    14    18    20    2
    15    18    21    1
    16    21    22   ar
    17    22    23   ar
    18    23    24   ar
    19    24    25    1
    20    24    26   ar
    21    26    27   ar
    22     1    13    1
    23    13    14    1
    24    13    15    1
    25    27    21   ar
    26     2     5    1
    27    16    17    1
@<TRIPOS>MOLECULE
*****
 27 27 0 0 0
SMALL
GASTEIGER

@<TRIPOS>ATOM
      1 C          63.1836   83.2438   13.0511 C.3     0  UNK0        0.1513
      2 N          62.0727   85.3116   11.9375 N.am    1  LEU1       -0.2982
      3 C          63.0345   84.1623   11.8746 C.2     0  UNK0        0.2386
      4 O          63.8471   83.9313   10.6351 O.2     0  UNK0       -0.2736
      5 H          61.5394   85.4632   12.7510 H       1  LEU1        0.1498
      6 CA         61.9235   86.2301   10.7610 C.3     1  LEU1        0.1368
      7 C          61.2700   85.7382    9.5036 C.2     1  LEU1        0.2266
      8 O          60.1799   86.5432    8.8606 O.2     1  LEU1       -0.2865
      9 CB         62.4279   87.6404   10.8418 C.3     1  LEU1        0.0276
     10 CD1        62.1585   89.9891   11.9192 C.3     1  LEU1        0.0001
     11 CG         61.5495   88.7202   11.4005 C.3     1  LEU1        0.0021
     12 CD2        60.0620   88.5311   11.4406 C.3     1  LEU1        0.0001
     13 C          62.5147   81.9012   13.0441 C.3     0  UNK0        0.0249
     14 C          61.6061   81.5100   14.1717 C.3     0  UNK0        0.0019
     15 C          62.7543   80.9499   11.9094 C.3     0  UNK0        0.0019
     16 N          64.0017   83.6679   14.2347 N.3     0  UNK0       -0.1720
     17 H          64.9804   83.5439   13.9758 H       0  UNK0        0.1493
     18 S          63.8703   85.0602   14.7771 S.O2    0  UNK0        0.0606
     19 O          62.4035   84.8361   14.9970 O.2     0  UNK0       -0.1530
     20 O          65.3371   85.2842   14.5573 O.2     0  UNK0       -0.1530
     21 C          63.7389   86.4525   15.3196 C.ar    0  UNK0        0.1221
     22 C          63.1627   86.6735   16.6867 C.ar    0  UNK0        0.0222
     23 C          63.0313   88.0658   17.2291 C.ar    0  UNK0        0.0310
     24 C          63.4761   89.2371   16.4044 C.ar    0  UNK0        0.1402
     25 F          63.3448   90.6294   16.9468 F       0  UNK0       -0.2042
     26 C          64.0523   89.0161   15.0373 C.ar    0  UNK0        0.0310
     27 C          64.1837   87.6238   14.4949 C.ar    0  UNK0        0.0222
@<TRIPOS>BOND
     1    10    11    1
     2    11    12    1
     3    11     9    1
     4     6     9    1
     5     6     7    1
     6     7     8    2
     7     6     2    1
     8     2     3   am
     9     3     4    2
    10     3     1    1
    11     1    16    1
    12    16    18    1
    13    18    19    2
    14    18    20    2
    15    18    21    1
    16    21    22   ar
    17    22    23   ar
    18    23    24   ar
    19    24    25    1
    20    24    26   ar
    21    26    27   ar
    22     1    13    1
    23    13    14    1
    24    13    15    1
    25    27    21   ar
    26     2     5    1
    27    16    17    1
@<TRIPOS>MOLECULE
*****
 27 27 0 0 0
SMALL
GASTEIGER

@<TRIPOS>ATOM
      1 C          61.9080   87.6191   11.4039 C.3     0  UNK0        0.1513
      2 N          62.2882   85.2270   12.3438 N.am    1  LEU1       -0.2982
      3 C          62.6704   86.6764   12.2872 C.2     0  UNK0        0.2386
      4 O          63.8148   87.1831   13.1139 O.2     0  UNK0       -0.2736
      5 H          61.5371   84.8944   11.8012 H       1  LEU1        0.1498
      6 CA         63.0506   84.2843   13.2271 C.3     1  LEU1        0.1368
      7 C          62.7782   84.2524   14.7018 C.2     1  LEU1        0.2266
      8 O          61.5248   84.8706   15.2465 O.2     1  LEU1       -0.2865
      9 CB         64.0852   83.3734   12.6356 C.3     1  LEU1        0.0276
     10 CD1        63.0163   81.2989   11.4937 C.3     1  LEU1        0.0001
     11 CG         63.7737   82.5900   11.3951 C.3     1  LEU1        0.0021
     12 CD2        64.2194   83.0976   10.0558 C.3     1  LEU1        0.0001
     13 C          61.4386   87.1670   10.0529 C.3     0  UNK0        0.0249
     14 C          62.3783   86.4404    9.1368 C.3     0  UNK0        0.0019
     15 C          60.0296   87.4414    9.6179 C.3     0  UNK0        0.0019
     16 N          61.6152   89.0139   11.8716 N.3     0  UNK0       -0.1720
     17 H          60.9913   88.9304   12.6742 H       0  UNK0        0.1493
     18 S          62.7383   89.9166   12.2883 S.O2    0  UNK0        0.0606
     19 O          63.2139   89.9809   10.8671 O.2     0  UNK0       -0.1530
     20 O          62.2627   89.8523   13.7094 O.2     0  UNK0       -0.1530
     21 C          63.8615   90.8193   12.7050 C.ar    0  UNK0        0.1221
     22 C          64.4317   90.7175   14.0886 C.ar    0  UNK0        0.0222
     23 C          65.5548   91.6202   14.5053 C.ar    0  UNK0        0.0310
     24 C          66.1078   92.6247   13.5383 C.ar    0  UNK0        0.1402
     25 F          67.2310   93.5274   13.9550 F       0  UNK0       -0.2042
     26 C          65.5376   92.7266   12.1547 C.ar    0  UNK0        0.0310
     27 C          64.4145   91.8238   11.7380 C.ar    0  UNK0        0.0222
@<TRIPOS>BOND
     1    10    11    1
     2    11    12    1
     3    11     9    1
     4     6     9    1
     5     6     7    1
     6     7     8    2
     7     6     2    1
     8     2     3   am
     9     3     4    2
    10     3     1    1
    11     1    16    1
    12    16    18    1
    13    18    19    2
    14    18    20    2
    15    18    21    1
    16    21    22   ar
    17    22    23   ar
    18    23    24   ar
    19    24    25    1
    20    24    26   ar
    21    26    27   ar
    22     1    13    1
    23    13    14    1
    24    13    15    1
    25    27    21   ar
    26     2     5    1
    27    16    17    1
@<TRIPOS>MOLECULE
*****
 27 27 0 0 0
SMALL
GASTEIGER

@<TRIPOS>ATOM
      1 C          63.4011   83.3508   12.5576 C.3     0  UNK0        0.1513
      2 N          63.1252   85.2784   14.2775 N.am    1  LEU1       -0.2982
      3 C          63.9838   84.2437   13.6127 C.2     0  UNK0        0.2386
      4 O          65.4252   84.1018   14.0030 O.2     0  UNK0       -0.2736
      5 H          62.1792   85.3716   14.0214 H       1  LEU1        0.1498
      6 CA         63.7079   86.1714   15.3327 C.3     1  LEU1        0.1368
      7 C          63.4175   85.9096   16.7808 C.2     1  LEU1        0.2266
      8 O          62.0114   86.0087   17.2936 O.2     1  LEU1       -0.2865
      9 CB         64.5810   87.3260   14.9396 C.3     1  LEU1        0.0276
     10 CD1        63.5081   89.4376   16.0074 C.3     1  LEU1        0.0001
     11 CG         63.9909   88.6974   14.7953 C.3     1  LEU1        0.0021
     12 CD2        63.8834   89.3287   13.4388 C.3     1  LEU1        0.0001
     13 C          62.7131   82.0768   12.9495 C.3     0  UNK0        0.0249
     14 C          62.7585   80.8882   12.0356 C.3     0  UNK0        0.0019
     15 C          61.9798   81.9914   14.2552 C.3     0  UNK0        0.0019
     16 N          63.5064   83.7319   11.1107 N.3     0  UNK0       -0.1720
     17 H          63.1898   82.9268   10.5703 H       0  UNK0        0.1493
     18 S          62.7566   84.9232   10.5923 S.O2    0  UNK0        0.0606
     19 O          62.0050   85.0135   11.8873 O.2     0  UNK0       -0.1530
     20 O          63.5083   84.8328    9.2974 O.2     0  UNK0       -0.1530
     21 C          62.0068   86.1145   10.0740 C.ar    0  UNK0        0.1221
     22 C          62.2513   87.4705   10.6667 C.ar    0  UNK0        0.0222
     23 C          61.5015   88.6618   10.1483 C.ar    0  UNK0        0.0310
     24 C          60.5073   88.4970    9.0374 C.ar    0  UNK0        0.1402
     25 F          59.7575   89.6883    8.5191 F       0  UNK0       -0.2042
     26 C          60.2628   87.1410    8.4448 C.ar    0  UNK0        0.0310
     27 C          61.0126   85.9497    8.9631 C.ar    0  UNK0        0.0222
@<TRIPOS>BOND
     1    10    11    1
     2    11    12    1
     3    11     9    1
     4     6     9    1
     5     6     7    1
     6     7     8    2
     7     6     2    1
     8     2     3   am
     9     3     4    2
    10     3     1    1
    11     1    16    1
    12    16    18    1
    13    18    19    2
    14    18    20    2
    15    18    21    1
    16    21    22   ar
    17    22    23   ar
    18    23    24   ar
    19    24    25    1
    20    24    26   ar
    21    26    27   ar
    22     1    13    1
    23    13    14    1
    24    13    15    1
    25    27    21   ar
    26     2     5    1
    27    16    17    1
@<TRIPOS>MOLECULE
*****
 27 27 0 0 0
SMALL
GASTEIGER

@<TRIPOS>ATOM
      1 C          63.8301   86.4196   15.5963 C.3     0  UNK0        0.1513
      2 N          64.1634   88.3851   13.9302 N.am    1  LEU1       -0.2982
      3 C          63.7438   87.8834   15.2801 C.2     0  UNK0        0.2386
      4 O          63.2379   88.8455   16.3138 O.2     0  UNK0       -0.2736
      5 H          64.4955   87.7537   13.2518 H       1  LEU1        0.1498
      6 CA         64.0772   89.8489   13.6140 C.3     1  LEU1        0.1368
      7 C          65.1339   90.7881   14.1153 C.2     1  LEU1        0.2266
      8 O          65.0716   92.2445   13.7623 O.2     1  LEU1       -0.2865
      9 CB         62.9342   90.3735   12.7965 C.3     1  LEU1        0.0276
     10 CD1        63.1114   91.0256   10.2878 C.3     1  LEU1        0.0001
     11 CG         62.8175   90.0051   11.3472 C.3     1  LEU1        0.0021
     12 CD2        62.4068   88.6161   10.9572 C.3     1  LEU1        0.0001
     13 C          62.8748   85.8066   16.5770 C.3     0  UNK0        0.0249
     14 C          62.7341   86.3900   17.9517 C.3     0  UNK0        0.0019
     15 C          62.0602   84.6103   16.1829 C.3     0  UNK0        0.0019
     16 N          64.8716   85.5689   14.9319 N.3     0  UNK0       -0.1720
     17 H          65.3741   85.0843   15.6755 H       0  UNK0        0.1493
     18 S          64.4633   84.5260   13.9341 S.O2    0  UNK0        0.0606
     19 O          65.1062   83.4662   14.7788 O.2     0  UNK0       -0.1530
     20 O          63.8204   85.5858   13.0894 O.2     0  UNK0       -0.1530
     21 C          64.0551   83.4830   12.9363 C.ar    0  UNK0        0.1221
     22 C          64.4571   83.6230   11.4980 C.ar    0  UNK0        0.0222
     23 C          64.0489   82.5800   10.5003 C.ar    0  UNK0        0.0310
     24 C          63.2385   81.3971   10.9408 C.ar    0  UNK0        0.1402
     25 F          62.8303   80.3542    9.9430 F       0  UNK0       -0.2042
     26 C          62.8365   81.2572   12.3790 C.ar    0  UNK0        0.0310
     27 C          63.2447   82.3001   13.3768 C.ar    0  UNK0        0.0222
@<TRIPOS>BOND
     1    10    11    1
     2    11    12    1
     3    11     9    1
     4     6     9    1
     5     6     7    1
     6     7     8    2
     7     6     2    1
     8     2     3   am
     9     3     4    2
    10     3     1    1
    11     1    16    1
    12    16    18    1
    13    18    19    2
    14    18    20    2
    15    18    21    1
    16    21    22   ar
    17    22    23   ar
    18    23    24   ar
    19    24    25    1
    20    24    26   ar
    21    26    27   ar
    22     1    13    1
    23    13    14    1
    24    13    15    1
    25    27    21   ar
    26     2     5    1
    27    16    17    1
