@<TRIPOS>MOLECULE
*****
 40 43 0 0 0
SMALL
GASTEIGER

@<TRIPOS>ATOM
      1 C          61.9207   88.6653   11.0762 C.3     1  UNL1        0.0799
      2 C          62.9619   89.6514   11.5159 C.ar    1  UNL1        0.0374
      3 C          63.3097   90.8166   10.6377 C.ar    1  UNL1        0.0023
      4 C          64.3510   91.8028   11.0775 C.ar    1  UNL1        0.0183
      5 C          64.6988   92.9680   10.1992 C.ar    1  UNL1        0.0118
      6 C          65.7400   93.9541   10.6390 C.ar    1  UNL1        0.0685
      7 C          66.4334   93.7750   11.9570 C.ar    1  UNL1        0.0118
      8 C          66.0856   92.6098   12.8353 C.ar    1  UNL1        0.0199
      9 C          65.0444   91.6237   12.3955 C.ar    1  UNL1        0.0844
     10 N          64.6965   90.4585   13.2737 N.ar    1  UNL1       -0.2119
     11 C          63.6553   89.4724   12.8339 C.ar    1  UNL1        0.2211
     12 C          66.0878   95.1194    9.7608 C.1     1  UNL1        0.1004
     13 N          66.4357   96.2846    8.8826 N.1     1  UNL1       -0.1908
     14 O          63.3074   88.3071   13.7122 O.3     1  UNL1       -0.4563
     15 C          64.3479   87.7096   14.6125 C.3     1  UNL1        0.2542
     16 C          62.5946   84.7767   10.6578 C.ar    1  UNL1        0.1657
     17 C          63.1638   84.7353    9.2707 C.ar    1  UNL1        0.0392
     18 C          63.3187   86.0039    8.4853 C.ar    1  UNL1        0.0029
     19 C          62.9043   87.3139    9.0872 C.ar    1  UNL1       -0.0014
     20 C          62.3350   87.3553   10.4743 C.ar    1  UNL1        0.0148
     21 C          62.1802   86.0868   11.2597 C.ar    1  UNL1        0.1702
     22 F          61.6110   86.1282   12.6468 F       1  UNL1       -0.2013
     23 C          63.3362   83.2374   12.6149 C.3     1  UNL1        0.2526
     24 O          62.4398   83.5082   11.4432 O.3     1  UNL1       -0.4692
     25 C          60.4650   88.9891   11.2383 C.3     1  UNL1        0.1160
     26 O          60.6993   89.3190   12.6827 O.3     1  UNL1       -0.3820
     27 H          60.6816   90.2816   12.8015 H       1  UNL1        0.2107
     28 C          60.2308   88.6592    9.7939 C.ar    1  UNL1        0.0047
     29 C          60.0813   87.2294    9.3658 C.ar    1  UNL1        0.0127
     30 C          59.8471   86.8995    7.9214 C.ar    1  UNL1        0.0587
     31 C          59.6976   85.4696    7.4934 C.3     1  UNL1        0.0521
     32 N          59.7622   87.9994    6.9051 N.ar    1  UNL1       -0.2540
     33 C          59.9117   89.4292    7.3331 C.ar    1  UNL1        0.0587
     34 C          59.7758   90.2506    6.0853 C.3     1  UNL1        0.0521
     35 C          60.1459   89.7591    8.7775 C.ar    1  UNL1        0.0127
     36 C          59.0094   89.3130   11.4004 C.3     1  UNL1        0.0491
     37 C          58.4791   89.7331   12.7392 C.3     1  UNL1        0.0750
     38 N          57.9751   88.7008   13.7038 N.3     1  UNL1       -0.2702
     39 C          56.6699   88.0078   13.4465 C.3     1  UNL1        0.0897
     40 C          58.7764   88.3615   14.9257 C.3     1  UNL1        0.0897
@<TRIPOS>BOND
     1    23    24    1
     2    24    16    1
     3    16    17   ar
     4    17    18   ar
     5    18    19   ar
     6    19    20   ar
     7    20     1    1
     8     1     2    1
     9     2     3   ar
    10     3     4   ar
    11     4     5   ar
    12     5     6   ar
    13     6    12    1
    14    12    13    3
    15     6     7   ar
    16     7     8   ar
    17     8     9   ar
    18     9    10   ar
    19    10    11   ar
    20    11    14    1
    21    14    15    1
    22     1    25    1
    23    25    26    1
    24    25    36    1
    25    36    37    1
    26    37    38    1
    27    38    39    1
    28    38    40    1
    29    25    28    1
    30    28    29   ar
    31    29    30   ar
    32    30    31    1
    33    30    32   ar
    34    32    33   ar
    35    33    34    1
    36    33    35   ar
    37    20    21   ar
    38    21    22    1
    39    21    16   ar
    40    11     2   ar
    41    35    28   ar
    42     9     4   ar
    43    26    27    1
@<TRIPOS>MOLECULE
*****
 40 43 0 0 0
SMALL
GASTEIGER

@<TRIPOS>ATOM
      1 C          59.9196   93.6147   -1.4638 C.3     1  UNL1        0.0799
      2 C          60.8739   94.3866   -2.3260 C.ar    1  UNL1        0.0374
      3 C          61.9100   93.6619   -3.1330 C.ar    1  UNL1        0.0023
      4 C          62.8643   94.4338   -3.9953 C.ar    1  UNL1        0.0183
      5 C          63.9004   93.7091   -4.8022 C.ar    1  UNL1        0.0118
      6 C          64.8546   94.4810   -5.6644 C.ar    1  UNL1        0.0685
      7 C          64.7727   95.9778   -5.7197 C.ar    1  UNL1        0.0118
      8 C          63.7367   96.7026   -4.9127 C.ar    1  UNL1        0.0199
      9 C          62.7825   95.9306   -4.0505 C.ar    1  UNL1        0.0844
     10 N          61.7463   96.6554   -3.2435 N.ar    1  UNL1       -0.2119
     11 C          60.7921   95.8834   -2.3813 C.ar    1  UNL1        0.2211
     12 C          65.8907   93.7563   -6.4714 C.1     1  UNL1        0.1004
     13 N          66.9268   93.0315   -7.2784 N.1     1  UNL1       -0.1908
     14 O          59.7559   96.6082   -1.5743 O.3     1  UNL1       -0.4563
     15 C          58.3936   96.8554   -2.1513 C.3     1  UNL1        0.2542
     16 C          56.5409   93.1251   -3.4873 C.ar    1  UNL1        0.1657
     17 C          55.5322   93.5511   -2.4621 C.ar    1  UNL1        0.0392
     18 C          55.9860   93.9983   -1.1041 C.ar    1  UNL1        0.0029
     19 C          57.4485   94.0195   -0.7713 C.ar    1  UNL1       -0.0014
     20 C          58.4572   93.5935   -1.7965 C.ar    1  UNL1        0.0148
     21 C          58.0035   93.1463   -3.1545 C.ar    1  UNL1        0.1702
     22 F          59.0122   92.7203   -4.1797 F       1  UNL1       -0.2013
     23 C          56.3496   93.5392   -6.0449 C.3     1  UNL1        0.2526
     24 O          56.0872   92.6779   -4.8453 O.3     1  UNL1       -0.4692
     25 C          60.4278   92.8639   -0.2687 C.3     1  UNL1        0.1160
     26 O          59.9514   91.5771   -0.8746 O.3     1  UNL1       -0.3820
     27 H          60.7114   91.0780   -1.2127 H       1  UNL1        0.2107
     28 C          60.9042   94.1508    0.3371 C.ar    1  UNL1        0.0047
     29 C          60.0588   94.8596    1.3533 C.ar    1  UNL1        0.0127
     30 C          60.5352   96.1464    1.9592 C.ar    1  UNL1        0.0587
     31 C          59.6897   96.8552    2.9755 C.3     1  UNL1        0.0521
     32 N          61.8570   96.7245    1.5488 N.ar    1  UNL1       -0.2540
     33 C          62.7025   96.0157    0.5325 C.ar    1  UNL1        0.0587
     34 C          63.9336   96.8555    0.3609 C.3     1  UNL1        0.0521
     35 C          62.2261   94.7289   -0.0733 C.ar    1  UNL1        0.0127
     36 C          60.9361   92.1132    0.9263 C.3     1  UNL1        0.0491
     37 C          62.3781   91.7063    0.9988 C.3     1  UNL1        0.0750
     38 N          63.1617   91.9428    2.2558 N.3     1  UNL1       -0.2702
     39 C          63.3854   90.8183    3.2230 C.3     1  UNL1        0.0897
     40 C          63.7218   93.3039    2.5455 C.3     1  UNL1        0.0897
@<TRIPOS>BOND
     1    23    24    1
     2    24    16    1
     3    16    17   ar
     4    17    18   ar
     5    18    19   ar
     6    19    20   ar
     7    20     1    1
     8     1     2    1
     9     2     3   ar
    10     3     4   ar
    11     4     5   ar
    12     5     6   ar
    13     6    12    1
    14    12    13    3
    15     6     7   ar
    16     7     8   ar
    17     8     9   ar
    18     9    10   ar
    19    10    11   ar
    20    11    14    1
    21    14    15    1
    22     1    25    1
    23    25    26    1
    24    25    36    1
    25    36    37    1
    26    37    38    1
    27    38    39    1
    28    38    40    1
    29    25    28    1
    30    28    29   ar
    31    29    30   ar
    32    30    31    1
    33    30    32   ar
    34    32    33   ar
    35    33    34    1
    36    33    35   ar
    37    20    21   ar
    38    21    22    1
    39    21    16   ar
    40    11     2   ar
    41    35    28   ar
    42     9     4   ar
    43    26    27    1
@<TRIPOS>MOLECULE
*****
 40 43 0 0 0
SMALL
GASTEIGER

@<TRIPOS>ATOM
      1 C          64.6530   91.2732   13.5909 C.3     1  UNL1        0.0799
      2 C          64.2209   90.1648   14.5047 C.ar    1  UNL1        0.0374
      3 C          64.3777   88.7358   14.0767 C.ar    1  UNL1        0.0023
      4 C          63.9456   87.6275   14.9905 C.ar    1  UNL1        0.0183
      5 C          64.1023   86.1984   14.5625 C.ar    1  UNL1        0.0118
      6 C          63.6702   85.0902   15.4762 C.ar    1  UNL1        0.0685
      7 C          63.0814   85.4110   16.8180 C.ar    1  UNL1        0.0118
      8 C          62.9247   86.8400   17.2460 C.ar    1  UNL1        0.0199
      9 C          63.3567   87.9482   16.3323 C.ar    1  UNL1        0.0844
     10 N          63.2000   89.3774   16.7603 N.ar    1  UNL1       -0.2119
     11 C          63.6321   90.4856   15.8465 C.ar    1  UNL1        0.2211
     12 C          63.8270   83.6610   15.0482 C.1     1  UNL1        0.1004
     13 N          63.9837   82.2320   14.6203 N.1     1  UNL1       -0.1908
     14 O          63.4754   91.9148   16.2745 O.3     1  UNL1       -0.4563
     15 C          64.4884   92.5397   17.1873 C.3     1  UNL1        0.2542
     16 C          67.9459   92.6780   15.3035 C.ar    1  UNL1        0.1657
     17 C          67.8956   94.1155   14.8781 C.ar    1  UNL1        0.0392
     18 C          66.7643   94.6056   14.0236 C.ar    1  UNL1        0.0029
     19 C          65.6834   93.6582   13.5946 C.ar    1  UNL1       -0.0014
     20 C          65.7338   92.2206   14.0200 C.ar    1  UNL1        0.0148
     21 C          66.8650   91.7305   14.8744 C.ar    1  UNL1        0.1702
     22 F          66.9154   90.2930   15.2998 F       1  UNL1       -0.2013
     23 C          70.1670   93.1313   16.5727 C.3     1  UNL1        0.2526
     24 O          69.0771   92.1879   16.1579 O.3     1  UNL1       -0.4692
     25 C          64.0042   91.4340   12.2481 C.3     1  UNL1        0.1160
     26 O          62.7075   90.9369   12.8150 O.3     1  UNL1       -0.3820
     27 H          62.0989   91.6831   12.9327 H       1  UNL1        0.2107
     28 C          65.3009   91.9311   11.6811 C.ar    1  UNL1        0.0047
     29 C          66.5982   91.3358   12.1420 C.ar    1  UNL1        0.0127
     30 C          67.8949   91.8329   11.5750 C.ar    1  UNL1        0.0587
     31 C          69.1923   91.2375   12.0360 C.3     1  UNL1        0.0521
     32 N          67.8943   92.9253   10.5472 N.ar    1  UNL1       -0.2540
     33 C          66.5970   93.5206   10.0863 C.ar    1  UNL1        0.0587
     34 C          66.9588   94.5670    9.0741 C.3     1  UNL1        0.0521
     35 C          65.3003   93.0236   10.6532 C.ar    1  UNL1        0.0127
     36 C          63.3554   91.5949   10.9052 C.3     1  UNL1        0.0491
     37 C          62.9582   90.3838   10.1143 C.3     1  UNL1        0.0750
     38 N          61.7624   89.5776   10.5268 N.3     1  UNL1       -0.2702
     39 C          61.9418   88.1825   11.0477 C.3     1  UNL1        0.0897
     40 C          60.3871   90.1667   10.4185 C.3     1  UNL1        0.0897
@<TRIPOS>BOND
     1    23    24    1
     2    24    16    1
     3    16    17   ar
     4    17    18   ar
     5    18    19   ar
     6    19    20   ar
     7    20     1    1
     8     1     2    1
     9     2     3   ar
    10     3     4   ar
    11     4     5   ar
    12     5     6   ar
    13     6    12    1
    14    12    13    3
    15     6     7   ar
    16     7     8   ar
    17     8     9   ar
    18     9    10   ar
    19    10    11   ar
    20    11    14    1
    21    14    15    1
    22     1    25    1
    23    25    26    1
    24    25    36    1
    25    36    37    1
    26    37    38    1
    27    38    39    1
    28    38    40    1
    29    25    28    1
    30    28    29   ar
    31    29    30   ar
    32    30    31    1
    33    30    32   ar
    34    32    33   ar
    35    33    34    1
    36    33    35   ar
    37    20    21   ar
    38    21    22    1
    39    21    16   ar
    40    11     2   ar
    41    35    28   ar
    42     9     4   ar
    43    26    27    1
@<TRIPOS>MOLECULE
*****
 40 43 0 0 0
SMALL
GASTEIGER

@<TRIPOS>ATOM
      1 C          61.9621   88.0136   10.6128 C.3     1  UNL1        0.0799
      2 C          62.5045   87.0744   11.6490 C.ar    1  UNL1        0.0374
      3 C          62.2138   85.6058   11.5557 C.ar    1  UNL1        0.0023
      4 C          62.7561   84.6666   12.5920 C.ar    1  UNL1        0.0183
      5 C          62.4655   83.1980   12.4987 C.ar    1  UNL1        0.0118
      6 C          63.0078   82.2588   13.5349 C.ar    1  UNL1        0.0685
      7 C          63.8408   82.7883   14.6644 C.ar    1  UNL1        0.0118
      8 C          64.1314   84.2568   14.7578 C.ar    1  UNL1        0.0199
      9 C          63.5891   85.1960   13.7215 C.ar    1  UNL1        0.0844
     10 N          63.8798   86.6647   13.8148 N.ar    1  UNL1       -0.2119
     11 C          63.3374   87.6038   12.7786 C.ar    1  UNL1        0.2211
     12 C          62.7171   80.7902   13.4416 C.1     1  UNL1        0.1004
     13 N          62.4265   79.3216   13.3483 N.1     1  UNL1       -0.1908
     14 O          63.6281   89.0725   12.8719 O.3     1  UNL1       -0.4563
     15 C          63.5015   89.7799   14.1885 C.3     1  UNL1        0.2542
     16 C          60.7968   85.8004    7.5316 C.ar    1  UNL1        0.1657
     17 C          59.4689   86.4246    7.2203 C.ar    1  UNL1        0.0392
     18 C          58.9720   87.5786    8.0399 C.ar    1  UNL1        0.0029
     19 C          59.8031   88.1082    9.1707 C.ar    1  UNL1       -0.0014
     20 C          61.1310   87.4840    9.4820 C.ar    1  UNL1        0.0148
     21 C          61.6279   86.3301    8.6625 C.ar    1  UNL1        0.1702
     22 F          62.9558   85.7059    8.9738 F       1  UNL1       -0.2013
     23 C          62.6068   84.7470    5.9942 C.3     1  UNL1        0.2526
     24 O          61.2937   84.6465    6.7121 O.3     1  UNL1       -0.4692
     25 C          62.2509   89.4825   10.7074 C.3     1  UNL1        0.1160
     26 O          63.5987   89.2574   10.0887 O.3     1  UNL1       -0.3820
     27 H          63.5867   89.5620    9.1678 H       1  UNL1        0.2107
     28 C          60.9031   89.7077   11.3261 C.ar    1  UNL1        0.0047
     29 C          60.1964   91.0160   11.1288 C.ar    1  UNL1        0.0127
     30 C          58.8486   91.2411   11.7475 C.ar    1  UNL1        0.0587
     31 C          58.1419   92.5495   11.5502 C.3     1  UNL1        0.0521
     32 N          58.2075   90.1580   12.5634 N.ar    1  UNL1       -0.2540
     33 C          58.9142   88.8497   12.7607 C.ar    1  UNL1        0.0587
     34 C          58.0051   88.0129   13.6113 C.3     1  UNL1        0.0521
     35 C          60.2620   88.6246   12.1420 C.ar    1  UNL1        0.0127
     36 C          62.5397   90.9514   10.8020 C.3     1  UNL1        0.0491
     37 C          63.7487   91.5234   10.1227 C.3     1  UNL1        0.0750
     38 N          64.7994   92.2274   10.9291 N.3     1  UNL1       -0.2702
     39 C          65.8326   93.0703   10.2422 C.3     1  UNL1        0.0897
     40 C          64.8168   92.0884   12.4226 C.3     1  UNL1        0.0897
@<TRIPOS>BOND
     1    23    24    1
     2    24    16    1
     3    16    17   ar
     4    17    18   ar
     5    18    19   ar
     6    19    20   ar
     7    20     1    1
     8     1     2    1
     9     2     3   ar
    10     3     4   ar
    11     4     5   ar
    12     5     6   ar
    13     6    12    1
    14    12    13    3
    15     6     7   ar
    16     7     8   ar
    17     8     9   ar
    18     9    10   ar
    19    10    11   ar
    20    11    14    1
    21    14    15    1
    22     1    25    1
    23    25    26    1
    24    25    36    1
    25    36    37    1
    26    37    38    1
    27    38    39    1
    28    38    40    1
    29    25    28    1
    30    28    29   ar
    31    29    30   ar
    32    30    31    1
    33    30    32   ar
    34    32    33   ar
    35    33    34    1
    36    33    35   ar
    37    20    21   ar
    38    21    22    1
    39    21    16   ar
    40    11     2   ar
    41    35    28   ar
    42     9     4   ar
    43    26    27    1
@<TRIPOS>MOLECULE
*****
 40 43 0 0 0
SMALL
GASTEIGER

@<TRIPOS>ATOM
      1 C          62.3138   89.3242   12.2031 C.3     1  UNL1        0.0799
      2 C          62.8206   87.9933   12.6745 C.ar    1  UNL1        0.0374
      3 C          62.6645   86.7808   11.8055 C.ar    1  UNL1        0.0023
      4 C          63.1712   85.4499   12.2768 C.ar    1  UNL1        0.0183
      5 C          63.0151   84.2373   11.4078 C.ar    1  UNL1        0.0118
      6 C          63.5218   82.9066   11.8792 C.ar    1  UNL1        0.0685
      7 C          64.1847   82.7884   13.2196 C.ar    1  UNL1        0.0118
      8 C          64.3408   84.0010   14.0886 C.ar    1  UNL1        0.0199
      9 C          63.8341   85.3317   13.6172 C.ar    1  UNL1        0.0844
     10 N          63.9902   86.5444   14.4862 N.ar    1  UNL1       -0.2119
     11 C          63.4834   87.8752   14.0149 C.ar    1  UNL1        0.2211
     12 C          63.3657   81.6939   11.0101 C.1     1  UNL1        0.1004
     13 N          63.2097   80.4813   10.1411 N.1     1  UNL1       -0.1908
     14 O          63.6395   89.0878   14.8839 O.3     1  UNL1       -0.4563
     15 C          63.2335   89.0337   16.3269 C.3     1  UNL1        0.2542
     16 C          64.9331   92.3057   12.1961 C.ar    1  UNL1        0.1657
     17 C          65.2067   92.4391   10.7273 C.ar    1  UNL1        0.0392
     18 C          64.5160   91.5342    9.7504 C.ar    1  UNL1        0.0029
     19 C          63.5517   90.4960   10.2424 C.ar    1  UNL1       -0.0014
     20 C          63.2781   90.3625   11.7112 C.ar    1  UNL1        0.0148
     21 C          63.9688   91.2673   12.6880 C.ar    1  UNL1        0.1702
     22 F          63.6951   91.1338   14.1568 F       1  UNL1       -0.2013
     23 C          66.7694   92.6946   13.9923 C.3     1  UNL1        0.2526
     24 O          65.6238   93.2105   13.1729 O.3     1  UNL1       -0.4692
     25 C          60.8427   89.6167   12.2238 C.3     1  UNL1        0.1160
     26 O          60.9647   90.1311   13.6275 O.3     1  UNL1       -0.3820
     27 H          60.9147   91.0998   13.6224 H       1  UNL1        0.2107
     28 C          60.7208   89.1022   10.8200 C.ar    1  UNL1        0.0047
     29 C          61.0598   87.6738   10.5126 C.ar    1  UNL1        0.0127
     30 C          60.9378   87.1594    9.1089 C.ar    1  UNL1        0.0587
     31 C          61.2769   85.7308    8.8015 C.3     1  UNL1        0.0521
     32 N          60.4768   88.0734    8.0126 N.ar    1  UNL1       -0.2540
     33 C          60.1378   89.5018    8.3200 C.ar    1  UNL1        0.0587
     34 C          59.7207   90.1173    7.0171 C.3     1  UNL1        0.0521
     35 C          60.2598   90.0163    9.7237 C.ar    1  UNL1        0.0127
     36 C          59.3717   89.9092   12.2444 C.3     1  UNL1        0.0491
     37 C          58.3824   88.7819   12.2174 C.3     1  UNL1        0.0750
     38 N          57.6754   88.3742   13.4759 N.3     1  UNL1       -0.2702
     39 C          56.2320   87.9688   13.4277 C.3     1  UNL1        0.0897
     40 C          58.4118   88.3719   14.7828 C.3     1  UNL1        0.0897
@<TRIPOS>BOND
     1    23    24    1
     2    24    16    1
     3    16    17   ar
     4    17    18   ar
     5    18    19   ar
     6    19    20   ar
     7    20     1    1
     8     1     2    1
     9     2     3   ar
    10     3     4   ar
    11     4     5   ar
    12     5     6   ar
    13     6    12    1
    14    12    13    3
    15     6     7   ar
    16     7     8   ar
    17     8     9   ar
    18     9    10   ar
    19    10    11   ar
    20    11    14    1
    21    14    15    1
    22     1    25    1
    23    25    26    1
    24    25    36    1
    25    36    37    1
    26    37    38    1
    27    38    39    1
    28    38    40    1
    29    25    28    1
    30    28    29   ar
    31    29    30   ar
    32    30    31    1
    33    30    32   ar
    34    32    33   ar
    35    33    34    1
    36    33    35   ar
    37    20    21   ar
    38    21    22    1
    39    21    16   ar
    40    11     2   ar
    41    35    28   ar
    42     9     4   ar
    43    26    27    1
@<TRIPOS>MOLECULE
*****
 40 43 0 0 0
SMALL
GASTEIGER

@<TRIPOS>ATOM
      1 C          63.2165   89.5643   12.9901 C.3     1  UNL1        0.0799
      2 C          62.2796   88.8781   12.0406 C.ar    1  UNL1        0.0374
      3 C          62.8255   88.0844   10.8908 C.ar    1  UNL1        0.0023
      4 C          61.8886   87.3983    9.9412 C.ar    1  UNL1        0.0183
      5 C          62.4344   86.6045    8.7915 C.ar    1  UNL1        0.0118
      6 C          61.4976   85.9184    7.8420 C.ar    1  UNL1        0.0685
      7 C          60.0149   86.0261    8.0423 C.ar    1  UNL1        0.0118
      8 C          59.4691   86.8198    9.1920 C.ar    1  UNL1        0.0199
      9 C          60.4059   87.5059   10.1415 C.ar    1  UNL1        0.0844
     10 N          59.8601   88.2997   11.2914 N.ar    1  UNL1       -0.2119
     11 C          60.7970   88.9858   12.2408 C.ar    1  UNL1        0.2211
     12 C          62.0434   85.1246    6.6921 C.1     1  UNL1        0.1004
     13 N          62.5891   84.3309    5.5423 N.1     1  UNL1       -0.1908
     14 O          60.2512   89.7796   13.3907 O.3     1  UNL1       -0.4563
     15 C          59.0856   89.2566   14.1768 C.3     1  UNL1        0.2542
     16 C          66.3237   92.0249   12.7896 C.ar    1  UNL1        0.1657
     17 C          66.0758   92.6874   11.4669 C.ar    1  UNL1        0.0392
     18 C          64.8747   92.3088   10.6519 C.ar    1  UNL1        0.0029
     19 C          63.9216   91.2678   11.1596 C.ar    1  UNL1       -0.0014
     20 C          64.1696   90.6053   12.4824 C.ar    1  UNL1        0.0148
     21 C          65.3706   90.9838   13.2973 C.ar    1  UNL1        0.1702
     22 F          65.6185   90.3214   14.6201 F       1  UNL1       -0.2013
     23 C          67.3710   93.3077   14.7914 C.3     1  UNL1        0.2526
     24 O          67.5247   92.4035   13.6046 O.3     1  UNL1       -0.4692
     25 C          63.2002   89.2093   14.4474 C.3     1  UNL1        0.1160
     26 O          62.7876   90.6115   14.7844 O.3     1  UNL1       -0.3820
     27 H          61.8471   90.6236   15.0216 H       1  UNL1        0.2107
     28 C          63.6128   87.8071   14.1105 C.ar    1  UNL1        0.0047
     29 C          64.8575   87.2262   14.7133 C.ar    1  UNL1        0.0127
     30 C          65.2701   85.8240   14.3763 C.ar    1  UNL1        0.0587
     31 C          66.5148   85.2431   14.9792 C.3     1  UNL1        0.0521
     32 N          64.4381   85.0026   13.4366 N.ar    1  UNL1       -0.2540
     33 C          63.1934   85.5835   12.8338 C.ar    1  UNL1        0.0587
     34 C          62.6176   84.5095   11.9591 C.3     1  UNL1        0.0521
     35 C          62.7808   86.9857   13.1708 C.ar    1  UNL1        0.0127
     36 C          63.1839   88.8543   15.9047 C.3     1  UNL1        0.0491
     37 C          62.0501   88.0498   16.4681 C.3     1  UNL1        0.0750
     38 N          62.3320   86.7970   17.2433 N.3     1  UNL1       -0.2702
     39 C          62.2132   85.4591   16.5756 C.3     1  UNL1        0.0897
     40 C          62.7328   86.8821   18.6863 C.3     1  UNL1        0.0897
@<TRIPOS>BOND
     1    23    24    1
     2    24    16    1
     3    16    17   ar
     4    17    18   ar
     5    18    19   ar
     6    19    20   ar
     7    20     1    1
     8     1     2    1
     9     2     3   ar
    10     3     4   ar
    11     4     5   ar
    12     5     6   ar
    13     6    12    1
    14    12    13    3
    15     6     7   ar
    16     7     8   ar
    17     8     9   ar
    18     9    10   ar
    19    10    11   ar
    20    11    14    1
    21    14    15    1
    22     1    25    1
    23    25    26    1
    24    25    36    1
    25    36    37    1
    26    37    38    1
    27    38    39    1
    28    38    40    1
    29    25    28    1
    30    28    29   ar
    31    29    30   ar
    32    30    31    1
    33    30    32   ar
    34    32    33   ar
    35    33    34    1
    36    33    35   ar
    37    20    21   ar
    38    21    22    1
    39    21    16   ar
    40    11     2   ar
    41    35    28   ar
    42     9     4   ar
    43    26    27    1
@<TRIPOS>MOLECULE
*****
 40 43 0 0 0
SMALL
GASTEIGER

@<TRIPOS>ATOM
      1 C          61.8146   88.1102   10.5251 C.3     1  UNL1        0.0799
      2 C          62.3732   86.9905   11.3524 C.ar    1  UNL1        0.0374
      3 C          62.1803   85.5680   10.9173 C.ar    1  UNL1        0.0023
      4 C          62.7388   84.4483   11.7446 C.ar    1  UNL1        0.0183
      5 C          62.5459   83.0259   11.3095 C.ar    1  UNL1        0.0118
      6 C          63.1044   81.9063   12.1368 C.ar    1  UNL1        0.0685
      7 C          63.8559   82.2091   13.3992 C.ar    1  UNL1        0.0118
      8 C          64.0488   83.6316   13.8343 C.ar    1  UNL1        0.0199
      9 C          63.4903   84.7512   13.0070 C.ar    1  UNL1        0.0844
     10 N          63.6832   86.1737   13.4420 N.ar    1  UNL1       -0.2119
     11 C          63.1246   87.2933   12.6147 C.ar    1  UNL1        0.2211
     12 C          62.9115   80.4837   11.7018 C.1     1  UNL1        0.1004
     13 N          62.7187   79.0612   11.2667 N.1     1  UNL1       -0.1908
     14 O          63.3176   88.7159   13.0498 O.3     1  UNL1       -0.4563
     15 C          64.2062   89.0293   14.2169 C.3     1  UNL1        0.2542
     16 C          59.4769   88.6198    7.3588 C.ar    1  UNL1        0.1657
     17 C          59.0362   87.2093    7.1018 C.ar    1  UNL1        0.0392
     18 C          59.5217   86.0990    7.9860 C.ar    1  UNL1        0.0029
     19 C          60.4478   86.3993    9.1270 C.ar    1  UNL1       -0.0014
     20 C          60.8885   87.8099    9.3840 C.ar    1  UNL1        0.0148
     21 C          60.4031   88.9201    8.4999 C.ar    1  UNL1        0.1702
     22 F          60.8438   90.3307    8.7569 F       1  UNL1       -0.2013
     23 C          59.9308   90.3798    5.5024 C.3     1  UNL1        0.2526
     24 O          58.9915   89.7301    6.4747 O.3     1  UNL1       -0.4692
     25 C          62.1822   89.5302   10.8389 C.3     1  UNL1        0.1160
     26 O          63.5526   89.3003   10.2738 O.3     1  UNL1       -0.3820
     27 H          63.6196   89.7263    9.4049 H       1  UNL1        0.2107
     28 C          60.8119   89.7600   11.4040 C.ar    1  UNL1        0.0047
     29 C          60.1434   91.0918   11.2321 C.ar    1  UNL1        0.0127
     30 C          58.7731   91.3216   11.7973 C.ar    1  UNL1        0.0587
     31 C          58.1046   92.6534   11.6253 C.3     1  UNL1        0.0521
     32 N          58.0713   90.2197   12.5343 N.ar    1  UNL1       -0.2540
     33 C          58.7398   88.8880   12.7062 C.ar    1  UNL1        0.0587
     34 C          57.7739   88.0370   13.4763 C.3     1  UNL1        0.0521
     35 C          60.1101   88.6582   12.1411 C.ar    1  UNL1        0.0127
     36 C          62.5498   90.9502   11.1527 C.3     1  UNL1        0.0491
     37 C          63.6536   91.6246   10.3930 C.3     1  UNL1        0.0750
     38 N          64.8496   92.1586   11.1240 N.3     1  UNL1       -0.2702
     39 C          65.9684   92.8038   10.3610 C.3     1  UNL1        0.0897
     40 C          64.9270   92.0473   12.6179 C.3     1  UNL1        0.0897
@<TRIPOS>BOND
     1    23    24    1
     2    24    16    1
     3    16    17   ar
     4    17    18   ar
     5    18    19   ar
     6    19    20   ar
     7    20     1    1
     8     1     2    1
     9     2     3   ar
    10     3     4   ar
    11     4     5   ar
    12     5     6   ar
    13     6    12    1
    14    12    13    3
    15     6     7   ar
    16     7     8   ar
    17     8     9   ar
    18     9    10   ar
    19    10    11   ar
    20    11    14    1
    21    14    15    1
    22     1    25    1
    23    25    26    1
    24    25    36    1
    25    36    37    1
    26    37    38    1
    27    38    39    1
    28    38    40    1
    29    25    28    1
    30    28    29   ar
    31    29    30   ar
    32    30    31    1
    33    30    32   ar
    34    32    33   ar
    35    33    34    1
    36    33    35   ar
    37    20    21   ar
    38    21    22    1
    39    21    16   ar
    40    11     2   ar
    41    35    28   ar
    42     9     4   ar
    43    26    27    1
@<TRIPOS>MOLECULE
*****
 40 43 0 0 0
SMALL
GASTEIGER

@<TRIPOS>ATOM
      1 C          62.1032   88.8907   11.3148 C.3     1  UNL1        0.0799
      2 C          62.2975   87.4538   10.9304 C.ar    1  UNL1        0.0374
      3 C          62.6965   86.4471   11.9683 C.ar    1  UNL1        0.0023
      4 C          62.8908   85.0102   11.5839 C.ar    1  UNL1        0.0183
      5 C          63.2898   84.0035   12.6218 C.ar    1  UNL1        0.0118
      6 C          63.4840   82.5667   12.2374 C.ar    1  UNL1        0.0685
      7 C          63.2793   82.1366   10.8150 C.ar    1  UNL1        0.0118
      8 C          62.8803   83.1433    9.7771 C.ar    1  UNL1        0.0199
      9 C          62.6860   84.5801   10.1615 C.ar    1  UNL1        0.0844
     10 N          62.2870   85.5869    9.1236 N.ar    1  UNL1       -0.2119
     11 C          62.0928   87.0237    9.5080 C.ar    1  UNL1        0.2211
     12 C          63.8830   81.5599   13.2753 C.1     1  UNL1        0.1004
     13 N          64.2820   80.5532   14.3131 N.1     1  UNL1       -0.1908
     14 O          61.6938   88.0305    8.4701 O.3     1  UNL1       -0.4563
     15 C          60.2426   88.2652    8.1717 C.3     1  UNL1        0.2542
     16 C          58.4017   89.0863   12.7327 C.ar    1  UNL1        0.1657
     17 C          57.9780   90.4360   12.2337 C.ar    1  UNL1        0.0392
     18 C          58.9294   91.2705   11.4285 C.ar    1  UNL1        0.0029
     19 C          60.3045   90.7554   11.1222 C.ar    1  UNL1       -0.0014
     20 C          60.7282   89.4058   11.6211 C.ar    1  UNL1        0.0148
     21 C          59.7768   88.5713   12.4263 C.ar    1  UNL1        0.1702
     22 F          60.2005   87.2216   12.9252 F       1  UNL1       -0.2013
     23 C          56.0121   88.1455   13.1255 C.3     1  UNL1        0.2526
     24 O          57.4503   88.2518   13.5379 O.3     1  UNL1       -0.4692
     25 C          63.2841   89.8124   11.3929 C.3     1  UNL1        0.1160
     26 O          63.0967   90.1747    9.9494 O.3     1  UNL1       -0.3820
     27 H          62.7103   91.0622    9.8863 H       1  UNL1        0.2107
     28 C          63.4714   89.4501   12.8364 C.ar    1  UNL1        0.0047
     29 C          63.9054   88.0642   13.2116 C.ar    1  UNL1        0.0127
     30 C          64.0927   87.7019   14.6551 C.ar    1  UNL1        0.0587
     31 C          64.5268   86.3159   15.0302 C.3     1  UNL1        0.0521
     32 N          63.8460   88.7255   15.7234 N.ar    1  UNL1       -0.2540
     33 C          63.4120   90.1114   15.3482 C.ar    1  UNL1        0.0587
     34 C          63.2594   90.8604   16.6389 C.3     1  UNL1        0.0521
     35 C          63.2247   90.4737   13.9047 C.ar    1  UNL1        0.0127
     36 C          64.4649   90.7341   11.4710 C.3     1  UNL1        0.0491
     37 C          64.3874   92.1051   10.8674 C.3     1  UNL1        0.0750
     38 N          65.3539   93.1691   11.2961 N.3     1  UNL1       -0.2702
     39 C          65.7287   94.2684   10.3469 C.3     1  UNL1        0.0897
     40 C          65.9455   93.1337   12.6741 C.3     1  UNL1        0.0897
@<TRIPOS>BOND
     1    23    24    1
     2    24    16    1
     3    16    17   ar
     4    17    18   ar
     5    18    19   ar
     6    19    20   ar
     7    20     1    1
     8     1     2    1
     9     2     3   ar
    10     3     4   ar
    11     4     5   ar
    12     5     6   ar
    13     6    12    1
    14    12    13    3
    15     6     7   ar
    16     7     8   ar
    17     8     9   ar
    18     9    10   ar
    19    10    11   ar
    20    11    14    1
    21    14    15    1
    22     1    25    1
    23    25    26    1
    24    25    36    1
    25    36    37    1
    26    37    38    1
    27    38    39    1
    28    38    40    1
    29    25    28    1
    30    28    29   ar
    31    29    30   ar
    32    30    31    1
    33    30    32   ar
    34    32    33   ar
    35    33    34    1
    36    33    35   ar
    37    20    21   ar
    38    21    22    1
    39    21    16   ar
    40    11     2   ar
    41    35    28   ar
    42     9     4   ar
    43    26    27    1
@<TRIPOS>MOLECULE
*****
 40 43 0 0 0
SMALL
GASTEIGER

@<TRIPOS>ATOM
      1 C          62.7135   88.5098   11.3913 C.3     1  UNL1        0.0799
      2 C          63.4134   89.7777   11.7822 C.ar    1  UNL1        0.0374
      3 C          64.1129   90.6000   10.7409 C.ar    1  UNL1        0.0023
      4 C          64.8127   91.8679   11.1318 C.ar    1  UNL1        0.0183
      5 C          65.5122   92.6902   10.0904 C.ar    1  UNL1        0.0118
      6 C          66.2120   93.9580   10.4814 C.ar    1  UNL1        0.0685
      7 C          66.2124   94.4035   11.9137 C.ar    1  UNL1        0.0118
      8 C          65.5129   93.5812   12.9551 C.ar    1  UNL1        0.0199
      9 C          64.8131   92.3134   12.5641 C.ar    1  UNL1        0.0844
     10 N          64.1135   91.4910   13.6055 N.ar    1  UNL1       -0.2119
     11 C          63.4137   90.2232   13.2145 C.ar    1  UNL1        0.2211
     12 C          66.9116   94.7803    9.4400 C.1     1  UNL1        0.1004
     13 N          67.6110   95.6027    8.3986 N.1     1  UNL1       -0.1908
     14 O          62.7142   89.4008   14.2559 O.3     1  UNL1       -0.4563
     15 C          63.0027   89.6289   15.7101 C.3     1  UNL1        0.2542
     16 C          62.6570   84.6834   12.4425 C.ar    1  UNL1        0.1657
     17 C          63.4364   84.7297   13.7233 C.ar    1  UNL1        0.0392
     18 C          63.9748   86.0361   14.2267 C.ar    1  UNL1        0.0029
     19 C          63.7339   87.2961   13.4494 C.ar    1  UNL1       -0.0014
     20 C          62.9545   87.2498   12.1686 C.ar    1  UNL1        0.0148
     21 C          62.4160   85.9435   11.6652 C.ar    1  UNL1        0.1702
     22 F          61.6366   85.8971   10.3844 F       1  UNL1       -0.2013
     23 C          62.7946   82.0921   12.3156 C.3     1  UNL1        0.2526
     24 O          62.1186   83.3770   11.9390 O.3     1  UNL1       -0.4692
     25 C          61.7727   88.5020   10.2231 C.3     1  UNL1        0.1160
     26 O          62.8671   87.9710    9.3453 O.3     1  UNL1       -0.3820
     27 H          62.7130   87.0295    9.1703 H       1  UNL1        0.2107
     28 C          60.6784   89.0330   11.1008 C.ar    1  UNL1        0.0047
     29 C          60.1745   90.4325   10.9076 C.ar    1  UNL1        0.0127
     30 C          59.0801   90.9636   11.7853 C.ar    1  UNL1        0.0587
     31 C          58.5762   92.3632   11.5921 C.3     1  UNL1        0.0521
     32 N          58.4897   90.0950   12.8563 N.ar    1  UNL1       -0.2540
     33 C          58.9936   88.6955   13.0495 C.ar    1  UNL1        0.0587
     34 C          58.1974   88.1225   14.1843 C.3     1  UNL1        0.0521
     35 C          60.0879   88.1645   12.1718 C.ar    1  UNL1        0.0127
     36 C          60.8319   88.4942    9.0548 C.3     1  UNL1        0.0491
     37 C          61.0604   87.5472    7.9141 C.3     1  UNL1        0.0750
     38 N          60.0736   86.4513    7.6400 N.3     1  UNL1       -0.2702
     39 C          58.6139   86.6730    7.9046 C.3     1  UNL1        0.0897
     40 C          60.5466   85.1336    7.1014 C.3     1  UNL1        0.0897
@<TRIPOS>BOND
     1    23    24    1
     2    24    16    1
     3    16    17   ar
     4    17    18   ar
     5    18    19   ar
     6    19    20   ar
     7    20     1    1
     8     1     2    1
     9     2     3   ar
    10     3     4   ar
    11     4     5   ar
    12     5     6   ar
    13     6    12    1
    14    12    13    3
    15     6     7   ar
    16     7     8   ar
    17     8     9   ar
    18     9    10   ar
    19    10    11   ar
    20    11    14    1
    21    14    15    1
    22     1    25    1
    23    25    26    1
    24    25    36    1
    25    36    37    1
    26    37    38    1
    27    38    39    1
    28    38    40    1
    29    25    28    1
    30    28    29   ar
    31    29    30   ar
    32    30    31    1
    33    30    32   ar
    34    32    33   ar
    35    33    34    1
    36    33    35   ar
    37    20    21   ar
    38    21    22    1
    39    21    16   ar
    40    11     2   ar
    41    35    28   ar
    42     9     4   ar
    43    26    27    1
