@<TRIPOS>MOLECULE
*****
 30 34 0 0 0
SMALL
GASTEIGER

@<TRIPOS>ATOM
      1 N          65.8983   92.4615   11.2448 N.ar    1  UNL1       -0.3256
      2 C          64.5565   91.7970   11.1558 C.ar    1  UNL1        0.0367
      3 C          64.1239   91.4382   12.5466 C.ar    1  UNL1        0.0109
      4 C          65.1984   91.8810   13.4950 C.ar    1  UNL1        0.0167
      5 C          65.3198   91.7900   14.9873 C.ar    1  UNL1        0.0308
      6 C          66.5380   92.3314   15.6750 C.ar    1  UNL1        0.1402
      7 F          66.6595   92.2404   17.1673 F       1  UNL1       -0.2042
      8 C          67.6346   92.9638   14.8704 C.ar    1  UNL1        0.0311
      9 C          67.5132   93.0548   13.3781 C.ar    1  UNL1        0.0195
     10 C          66.2950   92.5134   12.6904 C.ar    1  UNL1        0.0598
     11 C          62.8075   90.7547   12.7697 C.3     1  UNL1        0.1213
     12 N          61.9236   90.4300   11.6020 N.am    1  UNL1       -0.2747
     13 C          60.6071   89.7464   11.8251 C.2     1  UNL1        0.2304
     14 O          60.1745   89.3877   13.2159 O.2     1  UNL1       -0.2745
     15 C          62.3562   90.7888   10.2113 C.3     1  UNL1        0.0999
     16 C          63.6726   91.4723    9.9882 C.3     1  UNL1        0.0650
     17 C          66.7023   92.9826   10.0906 C.3     1  UNL1        0.1474
     18 O          68.0094   94.9642    9.0349 O.co2   1  UNL1       -0.5472
     19 C          66.9207   94.4583    9.9343 C.2     1  UNL1        0.0732
     20 O          66.0505   95.4282   10.6772 O.co2   1  UNL1       -0.5472
     21 C          59.7233   89.4217   10.6574 C.3     1  UNL1        0.1131
     22 C          60.1506   88.3877    9.6583 C.2     1  UNL1        0.0072
     23 C          59.7273   88.3228    8.2207 C.2     1  UNL1        0.0947
     24 N          60.3913   87.1320    7.5953 N.2     1  UNL1       -0.2481
     25 C          61.2250   86.4610    8.6463 C.2     1  UNL1        0.0631
     26 C          62.1004   85.2436    8.6071 C.3     1  UNL1        0.0717
     27 C          62.8270   84.8021    9.8430 C.2     1  UNL1       -0.0198
     28 C          62.6783   85.5782   11.1179 C.2     1  UNL1       -0.0042
     29 C          61.8029   86.7956   11.1571 C.2     1  UNL1        0.0006
     30 C          61.0762   87.2371    9.9214 C.2     1  UNL1        0.0119
@<TRIPOS>UNITY_ATOM_ATTR
18 1
charge -1
@<TRIPOS>BOND
     1    18    19   ar
     2    19    20   ar
     3    19    17    1
     4    17     1    1
     5     1     2   ar
     6     2     3   ar
     7     3     4   ar
     8     4     5   ar
     9     5     6   ar
    10     6     7    1
    11     6     8   ar
    12     8     9   ar
    13     9    10   ar
    14     3    11    1
    15    11    12    1
    16    12    13   am
    17    13    14    2
    18    13    21    1
    19    21    22    1
    20    22    23    2
    21    23    24    1
    22    24    25    2
    23    25    26    1
    24    26    27    1
    25    27    28    2
    26    28    29    1
    27    29    30    2
    28    12    15    1
    29    15    16    1
    30    10     1   ar
    31    30    22    1
    32    16     2    1
    33    10     4   ar
    34    30    25    1
@<TRIPOS>MOLECULE
*****
 30 34 0 0 0
SMALL
GASTEIGER

@<TRIPOS>ATOM
      1 N          65.3962   93.2006   11.8384 N.ar    1  UNL1       -0.3256
      2 C          64.6420   91.9101   11.7129 C.ar    1  UNL1        0.0367
      3 C          64.8913   91.1051   12.9537 C.ar    1  UNL1        0.0109
      4 C          65.7996   91.8980   13.8461 C.ar    1  UNL1        0.0167
      5 C          66.3828   91.6080   15.1973 C.ar    1  UNL1        0.0308
      6 C          67.2781   92.6132   15.8591 C.ar    1  UNL1        0.1402
      7 F          67.8614   92.3232   17.2103 F       1  UNL1       -0.2042
      8 C          67.5901   93.9084   15.1698 C.ar    1  UNL1        0.0311
      9 C          67.0069   94.1983   13.8186 C.ar    1  UNL1        0.0195
     10 C          66.1116   93.1932   13.1568 C.ar    1  UNL1        0.0598
     11 C          64.2591   89.7539   13.1107 C.3     1  UNL1        0.1213
     12 N          63.3775   89.2079   12.0269 N.am    1  UNL1       -0.2747
     13 C          62.7452   87.8566   12.1839 C.2     1  UNL1        0.2304
     14 O          62.9946   87.0516   13.4248 O.2     1  UNL1       -0.2745
     15 C          63.1282   90.0129   10.7861 C.3     1  UNL1        0.0999
     16 C          63.7604   91.3641   10.6291 C.3     1  UNL1        0.0650
     17 C          65.4292   94.3048   10.8237 C.3     1  UNL1        0.1474
     18 O          66.8782   96.4435   10.5474 O.co2   1  UNL1       -0.5472
     19 C          66.7327   94.9530   10.4626 C.2     1  UNL1        0.0732
     20 O          67.8910   94.1107   10.0165 O.co2   1  UNL1       -0.5472
     21 C          61.8637   87.3107   11.1001 C.3     1  UNL1        0.1131
     22 C          62.3537   86.1945   10.2259 C.2     1  UNL1        0.0072
     23 C          62.3837   86.1972    8.7262 C.2     1  UNL1        0.0947
     24 N          62.9483   84.8841    8.2715 N.2     1  UNL1       -0.2481
     25 C          63.2674   84.0698    9.4901 C.2     1  UNL1        0.0631
     26 C          63.8450   82.6955    9.6560 C.3     1  UNL1        0.0717
     27 C          64.0553   82.1310   11.0298 C.2     1  UNL1       -0.0198
     28 C          63.6878   82.9408   12.2376 C.2     1  UNL1       -0.0042
     29 C          63.1101   84.3151   12.0718 C.2     1  UNL1        0.0006
     30 C          62.8999   84.8797   10.6980 C.2     1  UNL1        0.0119
@<TRIPOS>UNITY_ATOM_ATTR
18 1
charge -1
@<TRIPOS>BOND
     1    18    19   ar
     2    19    20   ar
     3    19    17    1
     4    17     1    1
     5     1     2   ar
     6     2     3   ar
     7     3     4   ar
     8     4     5   ar
     9     5     6   ar
    10     6     7    1
    11     6     8   ar
    12     8     9   ar
    13     9    10   ar
    14     3    11    1
    15    11    12    1
    16    12    13   am
    17    13    14    2
    18    13    21    1
    19    21    22    1
    20    22    23    2
    21    23    24    1
    22    24    25    2
    23    25    26    1
    24    26    27    1
    25    27    28    2
    26    28    29    1
    27    29    30    2
    28    12    15    1
    29    15    16    1
    30    10     1   ar
    31    30    22    1
    32    16     2    1
    33    10     4   ar
    34    30    25    1
@<TRIPOS>MOLECULE
*****
 30 34 0 0 0
SMALL
GASTEIGER

@<TRIPOS>ATOM
      1 N          62.0340   86.8879   11.0477 N.ar    1  UNL1       -0.3256
      2 C          62.7066   88.1863   11.3820 C.ar    1  UNL1        0.0367
      3 C          63.5056   87.9851   12.6354 C.ar    1  UNL1        0.0109
      4 C          63.3267   86.5624   13.0758 C.ar    1  UNL1        0.0167
      5 C          63.8746   85.7968   14.2435 C.ar    1  UNL1        0.0308
      6 C          63.5129   84.3530   14.4300 C.ar    1  UNL1        0.1402
      7 F          64.0608   83.5873   15.5977 F       1  UNL1       -0.2042
      8 C          62.6034   83.6749   13.4487 C.ar    1  UNL1        0.0311
      9 C          62.0556   84.4405   12.2809 C.ar    1  UNL1        0.0195
     10 C          62.4172   85.8843   12.0945 C.ar    1  UNL1        0.0598
     11 C          64.2927   89.1234   13.2139 C.3     1  UNL1        0.1213
     12 N          64.2809   90.4629   12.5388 N.am    1  UNL1       -0.2747
     13 C          65.0681   91.6012   13.1174 C.2     1  UNL1        0.2304
     14 O          65.8671   91.4000   14.3708 O.2     1  UNL1       -0.2745
     15 C          63.4819   90.6641   11.2854 C.3     1  UNL1        0.0999
     16 C          62.6947   89.5258   10.7070 C.3     1  UNL1        0.0650
     17 C          61.1357   86.6371    9.8728 C.3     1  UNL1        0.1474
     18 O          63.1333   85.6144    8.5637 O.co2   1  UNL1       -0.5472
     19 C          61.6855   86.0009    8.6307 C.2     1  UNL1        0.0732
     20 O          60.7875   85.7510    7.4555 O.co2   1  UNL1       -0.5472
     21 C          65.0562   92.9407   12.4423 C.3     1  UNL1        0.1131
     22 C          66.0755   93.2585   11.3886 C.2     1  UNL1        0.0072
     23 C          67.2160   92.3783   10.9712 C.2     1  UNL1        0.0947
     24 N          67.9786   93.0882    9.8921 N.2     1  UNL1       -0.2481
     25 C          67.3093   94.4072    9.6426 C.2     1  UNL1        0.0631
     26 C          67.6190   95.5260    8.6926 C.3     1  UNL1        0.0717
     27 C          66.7524   96.7501    8.6676 C.2     1  UNL1       -0.0198
     28 C          65.5763   96.8554    9.5925 C.2     1  UNL1       -0.0042
     29 C          65.2667   95.7366   10.5424 C.2     1  UNL1        0.0006
     30 C          66.1331   94.5125   10.5675 C.2     1  UNL1        0.0119
@<TRIPOS>UNITY_ATOM_ATTR
18 1
charge -1
@<TRIPOS>BOND
     1    18    19   ar
     2    19    20   ar
     3    19    17    1
     4    17     1    1
     5     1     2   ar
     6     2     3   ar
     7     3     4   ar
     8     4     5   ar
     9     5     6   ar
    10     6     7    1
    11     6     8   ar
    12     8     9   ar
    13     9    10   ar
    14     3    11    1
    15    11    12    1
    16    12    13   am
    17    13    14    2
    18    13    21    1
    19    21    22    1
    20    22    23    2
    21    23    24    1
    22    24    25    2
    23    25    26    1
    24    26    27    1
    25    27    28    2
    26    28    29    1
    27    29    30    2
    28    12    15    1
    29    15    16    1
    30    10     1   ar
    31    30    22    1
    32    16     2    1
    33    10     4   ar
    34    30    25    1
@<TRIPOS>MOLECULE
*****
 30 34 0 0 0
SMALL
GASTEIGER

@<TRIPOS>ATOM
      1 N          62.5545   85.4978   10.2283 N.ar    1  UNL1       -0.3256
      2 C          62.7980   86.5927   11.2241 C.ar    1  UNL1        0.0367
      3 C          63.2436   85.9599   12.5090 C.ar    1  UNL1        0.0109
      4 C          63.2755   84.4739   12.3073 C.ar    1  UNL1        0.0167
      5 C          63.6373   83.3439   13.2250 C.ar    1  UNL1        0.0308
      6 C          63.5733   81.9284   12.7330 C.ar    1  UNL1        0.1402
      7 F          63.9351   80.7983   13.6507 F       1  UNL1       -0.2042
      8 C          63.1474   81.6428   11.3234 C.ar    1  UNL1        0.0311
      9 C          62.7855   82.7727   10.4057 C.ar    1  UNL1        0.0195
     10 C          62.8496   84.1883   10.8976 C.ar    1  UNL1        0.0598
     11 C          63.5627   86.8186   13.6968 C.3     1  UNL1        0.1213
     12 N          63.4363   88.3101   13.5997 N.am    1  UNL1       -0.2747
     13 C          63.7554   89.1688   14.7875 C.2     1  UNL1        0.2304
     14 O          64.2011   88.5360   16.0724 O.2     1  UNL1       -0.2745
     15 C          62.9907   88.9429   12.3148 C.3     1  UNL1        0.0999
     16 C          62.6715   88.0843   11.1270 C.3     1  UNL1        0.0650
     17 C          62.0963   85.6803    8.8117 C.3     1  UNL1        0.1474
     18 O          59.9819   85.5712    7.3059 O.co2   1  UNL1       -0.5472
     19 C          60.6813   86.0888    8.5278 C.2     1  UNL1        0.0732
     20 O          59.9654   87.0151    9.4657 O.co2   1  UNL1       -0.5472
     21 C          63.6289   90.6603   14.6903 C.3     1  UNL1        0.1131
     22 C          64.8113   91.4882   14.2818 C.2     1  UNL1        0.0072
     23 C          65.9088   91.9647   15.1865 C.2     1  UNL1        0.0947
     24 N          66.8795   92.7558   14.3607 N.2     1  UNL1       -0.2481
     25 C          66.3819   92.7682   12.9457 C.2     1  UNL1        0.0631
     26 C          66.9276   93.3917   11.6954 C.3     1  UNL1        0.0717
     27 C          66.1951   93.2317   10.3961 C.2     1  UNL1       -0.0198
     28 C          64.9169   92.4483   10.3474 C.2     1  UNL1       -0.0042
     29 C          64.3712   91.8248   11.5977 C.2     1  UNL1        0.0006
     30 C          65.1037   91.9847   12.8970 C.2     1  UNL1        0.0119
@<TRIPOS>UNITY_ATOM_ATTR
18 1
charge -1
@<TRIPOS>BOND
     1    18    19   ar
     2    19    20   ar
     3    19    17    1
     4    17     1    1
     5     1     2   ar
     6     2     3   ar
     7     3     4   ar
     8     4     5   ar
     9     5     6   ar
    10     6     7    1
    11     6     8   ar
    12     8     9   ar
    13     9    10   ar
    14     3    11    1
    15    11    12    1
    16    12    13   am
    17    13    14    2
    18    13    21    1
    19    21    22    1
    20    22    23    2
    21    23    24    1
    22    24    25    2
    23    25    26    1
    24    26    27    1
    25    27    28    2
    26    28    29    1
    27    29    30    2
    28    12    15    1
    29    15    16    1
    30    10     1   ar
    31    30    22    1
    32    16     2    1
    33    10     4   ar
    34    30    25    1
@<TRIPOS>MOLECULE
*****
 30 34 0 0 0
SMALL
GASTEIGER

@<TRIPOS>ATOM
      1 N          62.6133   85.3853    9.9733 N.ar    1  UNL1       -0.3256
      2 C          62.8163   86.4656   10.9940 C.ar    1  UNL1        0.0367
      3 C          63.2132   85.8142   12.2856 C.ar    1  UNL1        0.0109
      4 C          63.2555   84.3314   12.0632 C.ar    1  UNL1        0.0167
      5 C          63.5837   83.1883   12.9773 C.ar    1  UNL1        0.0308
      6 C          63.5412   81.7802   12.4623 C.ar    1  UNL1        0.1402
      7 F          63.8694   80.6370   13.3764 F       1  UNL1       -0.2042
      8 C          63.1705   81.5151   11.0332 C.ar    1  UNL1        0.0311
      9 C          62.8422   82.6582   10.1191 C.ar    1  UNL1        0.0195
     10 C          62.8848   84.0663   10.6341 C.ar    1  UNL1        0.0598
     11 C          63.4848   86.6555   13.4974 C.3     1  UNL1        0.1213
     12 N          63.3595   88.1481   13.4176 N.am    1  UNL1       -0.2747
     13 C          63.6311   88.9894   14.6295 C.2     1  UNL1        0.2304
     14 O          64.0280   88.3381   15.9210 O.2     1  UNL1       -0.2745
     15 C          62.9626   88.7995   12.1260 C.3     1  UNL1        0.0999
     16 C          62.6910   87.9582   10.9142 C.3     1  UNL1        0.0650
     17 C          62.2098   85.5883    8.5430 C.3     1  UNL1        0.1474
     18 O          60.1018   85.2247    7.0684 O.co2   1  UNL1       -0.5472
     19 C          60.7872   85.9232    8.2053 C.2     1  UNL1        0.0732
     20 O          60.0499   86.9565    9.0045 O.co2   1  UNL1       -0.5472
     21 C          63.5058   90.4821   14.5496 C.3     1  UNL1        0.1131
     22 C          64.3868   91.3548   15.3935 C.2     1  UNL1        0.0072
     23 C          64.0114   91.9831   16.7028 C.2     1  UNL1        0.0947
     24 N          65.1905   92.7691   17.1948 N.2     1  UNL1       -0.2481
     25 C          66.2946   92.6265   16.1895 C.2     1  UNL1        0.0631
     26 C          67.6881   93.1796   16.1440 C.3     1  UNL1        0.0717
     27 C          68.5851   92.8587   14.9853 C.2     1  UNL1       -0.0198
     28 C          68.0884   91.9847   13.8721 C.2     1  UNL1       -0.0042
     29 C          66.6949   91.4315   13.9176 C.2     1  UNL1        0.0006
     30 C          65.7979   91.7524   15.0763 C.2     1  UNL1        0.0119
@<TRIPOS>UNITY_ATOM_ATTR
18 1
charge -1
@<TRIPOS>BOND
     1    18    19   ar
     2    19    20   ar
     3    19    17    1
     4    17     1    1
     5     1     2   ar
     6     2     3   ar
     7     3     4   ar
     8     4     5   ar
     9     5     6   ar
    10     6     7    1
    11     6     8   ar
    12     8     9   ar
    13     9    10   ar
    14     3    11    1
    15    11    12    1
    16    12    13   am
    17    13    14    2
    18    13    21    1
    19    21    22    1
    20    22    23    2
    21    23    24    1
    22    24    25    2
    23    25    26    1
    24    26    27    1
    25    27    28    2
    26    28    29    1
    27    29    30    2
    28    12    15    1
    29    15    16    1
    30    10     1   ar
    31    30    22    1
    32    16     2    1
    33    10     4   ar
    34    30    25    1
@<TRIPOS>MOLECULE
*****
 30 34 0 0 0
SMALL
GASTEIGER

@<TRIPOS>ATOM
      1 N          62.4213   88.4705   11.3887 N.ar    1  UNL1       -0.3256
      2 C          63.2235   89.6320   11.8960 C.ar    1  UNL1        0.0367
      3 C          64.0552   89.1527   13.0486 C.ar    1  UNL1        0.0109
      4 C          63.7670   87.6950   13.2537 C.ar    1  UNL1        0.0167
      5 C          64.2937   86.6971   14.2420 C.ar    1  UNL1        0.0308
      6 C          63.8105   85.2776   14.2044 C.ar    1  UNL1        0.1402
      7 F          64.3371   84.2796   15.1928 F       1  UNL1       -0.2042
      8 C          62.8006   84.8560   13.1785 C.ar    1  UNL1        0.0311
      9 C          62.2740   85.8539   12.1902 C.ar    1  UNL1        0.0195
     10 C          62.7572   87.2734   12.2278 C.ar    1  UNL1        0.0598
     11 C          64.9675   90.1056   13.7625 C.3     1  UNL1        0.1213
     12 N          65.0481   91.5377   13.3239 N.am    1  UNL1       -0.2747
     13 C          65.9605   92.4906   14.0379 C.2     1  UNL1        0.2304
     14 O          66.7922   92.0113   15.1905 O.2     1  UNL1       -0.2745
     15 C          64.2164   92.0170   12.1713 C.3     1  UNL1        0.0999
     16 C          63.3041   91.0642   11.4573 C.3     1  UNL1        0.0650
     17 C          61.4531   88.5008   10.2434 C.3     1  UNL1        0.1474
     18 O          62.5199   86.6249    8.7967 O.co2   1  UNL1       -0.5472
     19 C          61.3032   87.3008    9.3561 C.2     1  UNL1        0.0732
     20 O          59.9366   86.7766    9.0280 O.co2   1  UNL1       -0.5472
     21 C          66.0411   93.9228   13.5991 C.3     1  UNL1        0.1131
     22 C          66.2931   94.2524   12.1576 C.2     1  UNL1        0.0072
     23 C          65.7570   95.4425   11.4185 C.2     1  UNL1        0.0947
     24 N          66.2580   95.3754   10.0063 N.2     1  UNL1       -0.2481
     25 C          67.1039   94.1438    9.8726 C.2     1  UNL1        0.0631
     26 C          67.8571   93.5647    8.7119 C.3     1  UNL1        0.0717
     27 C          68.6321   92.2915    8.8808 C.2     1  UNL1       -0.0198
     28 C          68.6538   91.5975   10.2103 C.2     1  UNL1       -0.0042
     29 C          67.9005   92.1766   11.3710 C.2     1  UNL1        0.0006
     30 C          67.1255   93.4498   11.2022 C.2     1  UNL1        0.0119
@<TRIPOS>UNITY_ATOM_ATTR
18 1
charge -1
@<TRIPOS>BOND
     1    18    19   ar
     2    19    20   ar
     3    19    17    1
     4    17     1    1
     5     1     2   ar
     6     2     3   ar
     7     3     4   ar
     8     4     5   ar
     9     5     6   ar
    10     6     7    1
    11     6     8   ar
    12     8     9   ar
    13     9    10   ar
    14     3    11    1
    15    11    12    1
    16    12    13   am
    17    13    14    2
    18    13    21    1
    19    21    22    1
    20    22    23    2
    21    23    24    1
    22    24    25    2
    23    25    26    1
    24    26    27    1
    25    27    28    2
    26    28    29    1
    27    29    30    2
    28    12    15    1
    29    15    16    1
    30    10     1   ar
    31    30    22    1
    32    16     2    1
    33    10     4   ar
    34    30    25    1
@<TRIPOS>MOLECULE
*****
 30 34 0 0 0
SMALL
GASTEIGER

@<TRIPOS>ATOM
      1 N          61.7836   85.6375   10.1314 N.ar    1  UNL1       -0.3256
      2 C          62.3686   86.6082   11.1140 C.ar    1  UNL1        0.0367
      3 C          61.9180   87.9860   10.7288 C.ar    1  UNL1        0.0109
      4 C          61.0544   87.8669    9.5081 C.ar    1  UNL1        0.0167
      5 C          60.3330   88.8926    8.6850 C.ar    1  UNL1        0.0308
      6 C          59.5286   88.4669    7.4928 C.ar    1  UNL1        0.1402
      7 F          58.8071   89.4926    6.6697 F       1  UNL1       -0.2042
      8 C          59.4455   87.0154    7.1236 C.ar    1  UNL1        0.0311
      9 C          60.1669   85.9897    7.9466 C.ar    1  UNL1        0.0195
     10 C          60.9714   86.4155    9.1389 C.ar    1  UNL1        0.0598
     11 C          62.3522   89.1711   11.5393 C.3     1  UNL1        0.1213
     12 N          63.2370   88.9783   12.7351 N.am    1  UNL1       -0.2747
     13 C          63.6712   90.1635   13.5457 C.2     1  UNL1        0.2304
     14 O          63.2206   91.5414   13.1605 O.2     1  UNL1       -0.2745
     15 C          63.6877   87.6005   13.1204 C.3     1  UNL1        0.0999
     16 C          63.2535   86.4154   12.3098 C.3     1  UNL1        0.0650
     17 C          61.9768   84.1500   10.1398 C.3     1  UNL1        0.1474
     18 O          64.4280   83.3544   10.4696 O.co2   1  UNL1       -0.5472
     19 C          63.0382   83.5364   11.0040 C.2     1  UNL1        0.0732
     20 O          62.7100   83.1048   12.4025 O.co2   1  UNL1       -0.5472
     21 C          64.5561   89.9706   14.7415 C.3     1  UNL1        0.1131
     22 C          65.1473   91.1611   15.4367 C.2     1  UNL1        0.0072
     23 C          64.4765   91.9885   16.4928 C.2     1  UNL1        0.0947
     24 N          65.4278   93.0719   16.9066 N.2     1  UNL1       -0.2481
     25 C          66.6865   92.9141   16.1062 C.2     1  UNL1        0.0631
     26 C          67.9682   93.6932   16.0873 C.3     1  UNL1        0.0717
     27 C          69.0766   93.2913   15.1598 C.2     1  UNL1       -0.0198
     28 C          68.9032   92.1105   14.2514 C.2     1  UNL1       -0.0042
     29 C          67.6216   91.3314   14.2703 C.2     1  UNL1        0.0006
     30 C          66.5132   91.7332   15.1978 C.2     1  UNL1        0.0119
@<TRIPOS>UNITY_ATOM_ATTR
18 1
charge -1
@<TRIPOS>BOND
     1    18    19   ar
     2    19    20   ar
     3    19    17    1
     4    17     1    1
     5     1     2   ar
     6     2     3   ar
     7     3     4   ar
     8     4     5   ar
     9     5     6   ar
    10     6     7    1
    11     6     8   ar
    12     8     9   ar
    13     9    10   ar
    14     3    11    1
    15    11    12    1
    16    12    13   am
    17    13    14    2
    18    13    21    1
    19    21    22    1
    20    22    23    2
    21    23    24    1
    22    24    25    2
    23    25    26    1
    24    26    27    1
    25    27    28    2
    26    28    29    1
    27    29    30    2
    28    12    15    1
    29    15    16    1
    30    10     1   ar
    31    30    22    1
    32    16     2    1
    33    10     4   ar
    34    30    25    1
@<TRIPOS>MOLECULE
*****
 30 34 0 0 0
SMALL
GASTEIGER

@<TRIPOS>ATOM
      1 N          62.3532   85.5502   10.0835 N.ar    1  UNL1       -0.3256
      2 C          62.6574   86.7697   10.9022 C.ar    1  UNL1        0.0367
      3 C          63.0772   86.3172   12.2694 C.ar    1  UNL1        0.0109
      4 C          63.0324   84.8181   12.2956 C.ar    1  UNL1        0.0167
      5 C          63.3413   83.8235   13.3750 C.ar    1  UNL1        0.0308
      6 C          63.2027   82.3548   13.1035 C.ar    1  UNL1        0.1402
      7 F          63.5115   81.3601   14.1830 F       1  UNL1       -0.2042
      8 C          62.7552   81.8808   11.7526 C.ar    1  UNL1        0.0311
      9 C          62.4464   82.8754   10.6731 C.ar    1  UNL1        0.0195
     10 C          62.5850   84.3441   10.9446 C.ar    1  UNL1        0.0598
     11 C          63.4459   87.3287   13.3138 C.3     1  UNL1        0.1213
     12 N          63.3949   88.7927   12.9911 N.am    1  UNL1       -0.2747
     13 C          63.7637   89.8043   14.0356 C.2     1  UNL1        0.2304
     14 O          64.1835   89.3518   15.4027 O.2     1  UNL1       -0.2745
     15 C          62.9752   89.2452   11.6239 C.3     1  UNL1        0.0999
     16 C          62.6064   88.2337   10.5795 C.3     1  UNL1        0.0650
     17 C          61.8973   85.5388    8.6545 C.3     1  UNL1        0.1474
     18 O          59.8167   87.0055    9.1743 O.co2   1  UNL1       -0.5472
     19 C          60.5140   86.0015    8.3049 C.2     1  UNL1        0.0732
     20 O          59.8278   85.4602    7.0858 O.co2   1  UNL1       -0.5472
     21 C          63.7127   91.2683   13.7128 C.3     1  UNL1        0.1131
     22 C          64.9796   92.0163   13.4201 C.2     1  UNL1        0.0072
     23 C          65.3948   92.5586   12.0847 C.2     1  UNL1        0.0947
     24 N          66.7255   93.2307   12.2507 N.2     1  UNL1       -0.2481
     25 C          67.1326   93.1037   13.6888 C.2     1  UNL1        0.0631
     26 C          68.3465   93.5746   14.4336 C.3     1  UNL1        0.0717
     27 C          68.4814   93.2949   15.9012 C.2     1  UNL1       -0.0198
     28 C          67.4025   92.5443   16.6238 C.2     1  UNL1       -0.0042
     29 C          66.1886   92.0735   15.8790 C.2     1  UNL1        0.0006
     30 C          66.0536   92.3531   14.4115 C.2     1  UNL1        0.0119
@<TRIPOS>UNITY_ATOM_ATTR
18 1
charge -1
@<TRIPOS>BOND
     1    18    19   ar
     2    19    20   ar
     3    19    17    1
     4    17     1    1
     5     1     2   ar
     6     2     3   ar
     7     3     4   ar
     8     4     5   ar
     9     5     6   ar
    10     6     7    1
    11     6     8   ar
    12     8     9   ar
    13     9    10   ar
    14     3    11    1
    15    11    12    1
    16    12    13   am
    17    13    14    2
    18    13    21    1
    19    21    22    1
    20    22    23    2
    21    23    24    1
    22    24    25    2
    23    25    26    1
    24    26    27    1
    25    27    28    2
    26    28    29    1
    27    29    30    2
    28    12    15    1
    29    15    16    1
    30    10     1   ar
    31    30    22    1
    32    16     2    1
    33    10     4   ar
    34    30    25    1
@<TRIPOS>MOLECULE
*****
 30 34 0 0 0
SMALL
GASTEIGER

@<TRIPOS>ATOM
      1 N          65.0358   92.2189   12.5269 N.ar    1  UNL1       -0.3256
      2 C          64.5515   90.8147   12.7356 C.ar    1  UNL1        0.0367
      3 C          65.2561   90.2550   13.9358 C.ar    1  UNL1        0.0109
      4 C          66.1758   91.3133   14.4688 C.ar    1  UNL1        0.0167
      5 C          67.1196   91.3285   15.6345 C.ar    1  UNL1        0.0308
      6 C          67.9274   92.5575   15.9295 C.ar    1  UNL1        0.1402
      7 F          68.8713   92.5728   17.0952 F       1  UNL1       -0.2042
      8 C          67.7913   93.7713   15.0587 C.ar    1  UNL1        0.0311
      9 C          66.8474   93.7561   13.8930 C.ar    1  UNL1        0.0195
     10 C          66.0397   92.5271   13.5981 C.ar    1  UNL1        0.0598
     11 C          64.9691   88.8540   14.3882 C.3     1  UNL1        0.1213
     12 N          63.9775   88.0127   13.6405 N.am    1  UNL1       -0.2747
     13 C          63.6905   86.6115   14.0930 C.2     1  UNL1        0.2304
     14 O          64.3951   86.0518   15.2931 O.2     1  UNL1       -0.2745
     15 C          63.2730   88.5724   12.4404 C.3     1  UNL1        0.0999
     16 C          63.5600   89.9734   11.9879 C.3     1  UNL1        0.0650
     17 C          64.5939   93.1514   11.4382 C.3     1  UNL1        0.1474
     18 O          65.5274   95.3830   10.4904 O.co2   1  UNL1       -0.5472
     19 C          65.6138   93.8914   10.6247 C.2     1  UNL1        0.0732
     20 O          66.7201   93.1402    9.9453 O.co2   1  UNL1       -0.5472
     21 C          62.6990   85.7703   13.3452 C.3     1  UNL1        0.1131
     22 C          62.5977   84.3007   13.6285 C.2     1  UNL1        0.0072
     23 C          62.2285   83.6795   14.9429 C.2     1  UNL1        0.0947
     24 N          62.2506   82.1893   14.7738 N.2     1  UNL1       -0.2481
     25 C          62.6334   81.8894   13.3548 C.2     1  UNL1        0.0631
     26 C          62.8143   80.5967   12.6158 C.3     1  UNL1        0.0717
     27 C          63.2098   80.6090   11.1688 C.2     1  UNL1       -0.0198
     28 C          63.4243   81.9139   10.4610 C.2     1  UNL1       -0.0042
     29 C          63.2434   83.2066   11.2000 C.2     1  UNL1        0.0006
     30 C          62.8479   83.1944   12.6469 C.2     1  UNL1        0.0119
@<TRIPOS>UNITY_ATOM_ATTR
18 1
charge -1
@<TRIPOS>BOND
     1    18    19   ar
     2    19    20   ar
     3    19    17    1
     4    17     1    1
     5     1     2   ar
     6     2     3   ar
     7     3     4   ar
     8     4     5   ar
     9     5     6   ar
    10     6     7    1
    11     6     8   ar
    12     8     9   ar
    13     9    10   ar
    14     3    11    1
    15    11    12    1
    16    12    13   am
    17    13    14    2
    18    13    21    1
    19    21    22    1
    20    22    23    2
    21    23    24    1
    22    24    25    2
    23    25    26    1
    24    26    27    1
    25    27    28    2
    26    28    29    1
    27    29    30    2
    28    12    15    1
    29    15    16    1
    30    10     1   ar
    31    30    22    1
    32    16     2    1
    33    10     4   ar
    34    30    25    1
