@<TRIPOS>MOLECULE
*****
 25 27 0 0 0
SMALL
GASTEIGER

@<TRIPOS>ATOM
      1 C          64.1697   90.9323   13.0810 C.ar    1  UNL1        0.1658
      2 C          63.7149   91.4870   11.7637 C.ar    1  UNL1        0.0393
      3 C          62.9739   90.6116   10.7970 C.ar    1  UNL1        0.0048
      4 C          62.6877   89.1815   11.1477 C.ar    1  UNL1        0.0218
      5 C          63.1425   88.6269   12.4650 C.ar    1  UNL1        0.0343
      6 C          63.8835   89.5023   13.4317 C.ar    1  UNL1        0.1739
      7 F          64.3384   88.9476   14.7491 F       1  UNL1       -0.2010
      8 C          61.9467   88.3061   10.1809 C.ar    1  UNL1        0.1012
      9 C          62.2116   86.8300   10.1507 C.ar    1  UNL1        0.0258
     10 C          61.4705   85.9546    9.1840 C.ar    1  UNL1        0.0638
     11 C          60.4646   86.5554    8.2474 C.ar    1  UNL1        0.2765
     12 O          59.7236   85.6800    7.2806 O.2     1  UNL1       -0.2655
     13 N          60.1997   88.0315    8.2776 N.ar    1  UNL1       -0.2146
     14 C          59.1938   88.6323    7.3410 C.3     1  UNL1        0.1571
     15 N          60.9407   88.9069    9.2443 N.ar    1  UNL1       -0.1668
     16 O          64.9108   91.8078   14.0478 O.3     1  UNL1       -0.4731
     17 C          66.2997   91.4408   14.4792 C.3     1  UNL1        0.2070
     18 C          67.4842   92.0829   13.8198 C.3     1  UNL1        0.0646
     19 C          67.6741   91.9619   12.3369 C.3     1  UNL1        0.0759
     20 C          68.4512   92.3242    9.1882 C.3     1  UNL1        0.0173
     21 C          67.5391   93.2142    9.9793 C.3     1  UNL1        0.0576
     22 C          66.8240   94.4271    9.4620 C.3     1  UNL1        0.0174
     23 C          66.0249   95.0102   10.5896 C.3     1  UNL1        0.0187
     24 C          66.2461   94.1577   11.8038 C.3     1  UNL1        0.0721
     25 N          67.1819   93.0477   11.4266 N.3     1  UNL1       -0.2738
@<TRIPOS>BOND
     1    21    20    1
     2    21    22    1
     3    22    23    1
     4    23    24    1
     5    24    25    1
     6    25    19    1
     7    19    18    1
     8    18    17    1
     9    17    16    1
    10    16     1    1
    11     1     2   ar
    12     2     3   ar
    13     3     4   ar
    14     4     8    1
    15     8     9   ar
    16     9    10   ar
    17    10    11   ar
    18    11    12    2
    19    11    13   ar
    20    13    14    1
    21    13    15   ar
    22     4     5   ar
    23     5     6   ar
    24     6     7    1
    25    25    21    1
    26     6     1   ar
    27    15     8   ar
@<TRIPOS>MOLECULE
*****
 25 27 0 0 0
SMALL
GASTEIGER

@<TRIPOS>ATOM
      1 C          63.7951   90.6781   13.0824 C.ar    1  UNL1        0.1658
      2 C          63.1611   91.2670   11.8572 C.ar    1  UNL1        0.0393
      3 C          62.5121   90.3711   10.8442 C.ar    1  UNL1        0.0048
      4 C          62.4970   88.8863   11.0565 C.ar    1  UNL1        0.0218
      5 C          63.1310   88.2973   12.2817 C.ar    1  UNL1        0.0343
      6 C          63.7800   89.1932   13.2946 C.ar    1  UNL1        0.1739
      7 F          64.4141   88.6043   14.5199 F       1  UNL1       -0.2010
      8 C          61.8480   87.9904   10.0434 C.ar    1  UNL1        0.1012
      9 C          60.4098   88.1976    9.6711 C.ar    1  UNL1        0.0258
     10 C          59.7607   87.3017    8.6581 C.ar    1  UNL1        0.0638
     11 C          60.5499   86.1986    8.0174 C.ar    1  UNL1        0.2765
     12 O          59.9009   85.3027    7.0044 O.2     1  UNL1       -0.2655
     13 N          61.9882   85.9914    8.3898 N.ar    1  UNL1       -0.2146
     14 C          62.7774   84.8884    7.7492 C.3     1  UNL1        0.1571
     15 N          62.6372   86.8873    9.4028 N.ar    1  UNL1       -0.1668
     16 O          64.4441   91.5740   14.0954 O.3     1  UNL1       -0.4731
     17 C          65.8939   91.9338   13.9589 C.3     1  UNL1        0.2070
     18 C          66.3063   93.0540   13.0505 C.3     1  UNL1        0.0646
     19 C          67.0659   92.7577   11.7915 C.3     1  UNL1        0.0759
     20 C          68.5367   92.3897    8.9017 C.3     1  UNL1        0.0173
     21 C          67.8535   93.6320    9.3915 C.3     1  UNL1        0.0576
     22 C          67.7265   94.9233    8.6389 C.3     1  UNL1        0.0174
     23 C          66.9720   95.8907    9.5021 C.3     1  UNL1        0.0187
     24 C          66.6327   95.1971   10.7881 C.3     1  UNL1        0.0721
     25 N          67.1775   93.8012   10.7198 N.3     1  UNL1       -0.2738
@<TRIPOS>BOND
     1    21    20    1
     2    21    22    1
     3    22    23    1
     4    23    24    1
     5    24    25    1
     6    25    19    1
     7    19    18    1
     8    18    17    1
     9    17    16    1
    10    16     1    1
    11     1     2   ar
    12     2     3   ar
    13     3     4   ar
    14     4     8    1
    15     8     9   ar
    16     9    10   ar
    17    10    11   ar
    18    11    12    2
    19    11    13   ar
    20    13    14    1
    21    13    15   ar
    22     4     5   ar
    23     5     6   ar
    24     6     7    1
    25    25    21    1
    26     6     1   ar
    27    15     8   ar
@<TRIPOS>MOLECULE
*****
 25 27 0 0 0
SMALL
GASTEIGER

@<TRIPOS>ATOM
      1 C          64.0402   91.1245   12.5577 C.ar    1  UNL1        0.1658
      2 C          63.5778   89.7972   13.0816 C.ar    1  UNL1        0.0393
      3 C          62.8711   88.8367   12.1718 C.ar    1  UNL1        0.0048
      4 C          62.6266   89.2035   10.7380 C.ar    1  UNL1        0.0218
      5 C          63.0890   90.5307   10.2141 C.ar    1  UNL1        0.0343
      6 C          63.7957   91.4912   11.1239 C.ar    1  UNL1        0.1739
      7 F          64.2581   92.8186   10.6000 F       1  UNL1       -0.2010
      8 C          61.9198   88.2429    9.8282 C.ar    1  UNL1        0.1012
      9 C          62.3896   86.8219    9.7269 C.ar    1  UNL1        0.0258
     10 C          61.6828   85.8613    8.8171 C.ar    1  UNL1        0.0638
     11 C          60.5062   86.3218    8.0085 C.ar    1  UNL1        0.2765
     12 O          59.7994   85.3612    7.0987 O.2     1  UNL1       -0.2655
     13 N          60.0365   87.7428    8.1098 N.ar    1  UNL1       -0.2146
     14 C          58.8600   88.2032    7.3012 C.3     1  UNL1        0.1571
     15 N          60.7433   88.7033    9.0196 N.ar    1  UNL1       -0.1668
     16 O          64.7470   92.0851   13.4675 O.3     1  UNL1       -0.4731
     17 C          66.0619   91.7066   14.0821 C.3     1  UNL1        0.2070
     18 C          67.3428   92.1930   13.4716 C.3     1  UNL1        0.0646
     19 C          67.5578   92.0817   11.9913 C.3     1  UNL1        0.0759
     20 C          68.5614   92.4180    8.9044 C.3     1  UNL1        0.0173
     21 C          67.7644   93.4195    9.6865 C.3     1  UNL1        0.0576
     22 C          67.2888   94.7515    9.1869 C.3     1  UNL1        0.0174
     23 C          66.5335   95.4202   10.2971 C.3     1  UNL1        0.0187
     24 C          66.5423   94.5014   11.4828 C.3     1  UNL1        0.0721
     25 N          67.3031   93.2650   11.1053 N.3     1  UNL1       -0.2738
@<TRIPOS>BOND
     1    21    20    1
     2    21    22    1
     3    22    23    1
     4    23    24    1
     5    24    25    1
     6    25    19    1
     7    19    18    1
     8    18    17    1
     9    17    16    1
    10    16     1    1
    11     1     2   ar
    12     2     3   ar
    13     3     4   ar
    14     4     8    1
    15     8     9   ar
    16     9    10   ar
    17    10    11   ar
    18    11    12    2
    19    11    13   ar
    20    13    14    1
    21    13    15   ar
    22     4     5   ar
    23     5     6   ar
    24     6     7    1
    25    25    21    1
    26     6     1   ar
    27    15     8   ar
@<TRIPOS>MOLECULE
*****
 25 27 0 0 0
SMALL
GASTEIGER

@<TRIPOS>ATOM
      1 C          63.7614   89.8927   13.3361 C.ar    1  UNL1        0.1658
      2 C          64.3988   89.2387   14.5260 C.ar    1  UNL1        0.0393
      3 C          64.3949   87.7441   14.6519 C.ar    1  UNL1        0.0048
      4 C          63.7536   86.9034   13.5880 C.ar    1  UNL1        0.0218
      5 C          63.1162   87.5574   12.3980 C.ar    1  UNL1        0.0343
      6 C          63.1201   89.0521   12.2721 C.ar    1  UNL1        0.1739
      7 F          62.4827   89.7062   11.0821 F       1  UNL1       -0.2010
      8 C          63.7497   85.4087   13.7140 C.ar    1  UNL1        0.1012
      9 C          64.0061   84.7676   15.0456 C.ar    1  UNL1        0.0258
     10 C          64.0022   83.2728   15.1716 C.ar    1  UNL1        0.0638
     11 C          63.7419   82.4192   13.9659 C.ar    1  UNL1        0.2765
     12 O          63.7380   80.9246   14.0918 O.2     1  UNL1       -0.2655
     13 N          63.4855   83.0604   12.6342 N.ar    1  UNL1       -0.2146
     14 C          63.2253   82.2068   11.4285 C.3     1  UNL1        0.1571
     15 N          63.4894   84.5551   12.5083 N.ar    1  UNL1       -0.1668
     16 O          63.7653   91.3875   13.2101 O.3     1  UNL1       -0.4731
     17 C          64.7236   92.0585   12.2714 C.3     1  UNL1        0.2070
     18 C          66.0582   92.5274   12.7706 C.3     1  UNL1        0.0646
     19 C          67.2179   92.6327   11.8251 C.3     1  UNL1        0.0759
     20 C          68.6516   92.3922    8.9034 C.3     1  UNL1        0.0173
     21 C          67.8789   93.5730    9.4119 C.3     1  UNL1        0.0576
     22 C          67.6295   94.8506    8.6666 C.3     1  UNL1        0.0174
     23 C          66.8163   95.7509    9.5489 C.3     1  UNL1        0.0187
     24 C          66.5632   95.0295   10.8395 C.3     1  UNL1        0.0721
     25 N          67.2199   93.6836   10.7548 N.3     1  UNL1       -0.2738
@<TRIPOS>BOND
     1    21    20    1
     2    21    22    1
     3    22    23    1
     4    23    24    1
     5    24    25    1
     6    25    19    1
     7    19    18    1
     8    18    17    1
     9    17    16    1
    10    16     1    1
    11     1     2   ar
    12     2     3   ar
    13     3     4   ar
    14     4     8    1
    15     8     9   ar
    16     9    10   ar
    17    10    11   ar
    18    11    12    2
    19    11    13   ar
    20    13    14    1
    21    13    15   ar
    22     4     5   ar
    23     5     6   ar
    24     6     7    1
    25    25    21    1
    26     6     1   ar
    27    15     8   ar
@<TRIPOS>MOLECULE
*****
 25 27 0 0 0
SMALL
GASTEIGER

@<TRIPOS>ATOM
      1 C          64.1933   90.6147   13.6306 C.ar    1  UNL1        0.1658
      2 C          64.6248   89.5734   14.6204 C.ar    1  UNL1        0.0393
      3 C          64.3134   88.1274   14.3714 C.ar    1  UNL1        0.0048
      4 C          63.5705   87.7227   13.1328 C.ar    1  UNL1        0.0218
      5 C          63.1390   88.7639   12.1430 C.ar    1  UNL1        0.0343
      6 C          63.4505   90.2099   12.3920 C.ar    1  UNL1        0.1739
      7 F          63.0190   91.2512   11.4022 F       1  UNL1       -0.2010
      8 C          63.2591   86.2766   12.8839 C.ar    1  UNL1        0.1012
      9 C          62.7083   85.8456   11.5569 C.ar    1  UNL1        0.0258
     10 C          62.3969   84.3995   11.3080 C.ar    1  UNL1        0.0638
     11 C          62.6363   83.3844   12.3861 C.ar    1  UNL1        0.2765
     12 O          62.3249   81.9384   12.1373 O.2     1  UNL1       -0.2655
     13 N          63.1871   83.8154   13.7131 N.ar    1  UNL1       -0.2146
     14 C          63.4266   82.8004   14.7912 C.3     1  UNL1        0.1571
     15 N          63.4985   85.2615   13.9620 N.ar    1  UNL1       -0.1668
     16 O          64.5047   92.0608   13.8795 O.3     1  UNL1       -0.4731
     17 C          65.8895   92.4708   14.2847 C.3     1  UNL1        0.2070
     18 C          66.8013   93.1213   13.2869 C.3     1  UNL1        0.0646
     19 C          66.6790   92.7871   11.8298 C.3     1  UNL1        0.0759
     20 C          68.4586   92.3576    9.1283 C.3     1  UNL1        0.0173
     21 C          67.7926   93.6331    9.5519 C.3     1  UNL1        0.0576
     22 C          67.8278   94.9352    8.8081 C.3     1  UNL1        0.0174
     23 C          67.0314   95.9374    9.5901 C.3     1  UNL1        0.0187
     24 C          66.5042   95.2547   10.8172 C.3     1  UNL1        0.0721
     25 N          66.9746   93.8306   10.7936 N.3     1  UNL1       -0.2738
@<TRIPOS>BOND
     1    21    20    1
     2    21    22    1
     3    22    23    1
     4    23    24    1
     5    24    25    1
     6    25    19    1
     7    19    18    1
     8    18    17    1
     9    17    16    1
    10    16     1    1
    11     1     2   ar
    12     2     3   ar
    13     3     4   ar
    14     4     8    1
    15     8     9   ar
    16     9    10   ar
    17    10    11   ar
    18    11    12    2
    19    11    13   ar
    20    13    14    1
    21    13    15   ar
    22     4     5   ar
    23     5     6   ar
    24     6     7    1
    25    25    21    1
    26     6     1   ar
    27    15     8   ar
@<TRIPOS>MOLECULE
*****
 25 27 0 0 0
SMALL
GASTEIGER

@<TRIPOS>ATOM
      1 C          63.2322   89.3459   12.5341 C.ar    1  UNL1        0.1658
      2 C          62.4827   88.7092   11.4015 C.ar    1  UNL1        0.0393
      3 C          62.4035   87.2147   11.3010 C.ar    1  UNL1        0.0048
      4 C          63.0738   86.3569   12.3329 C.ar    1  UNL1        0.0218
      5 C          63.8234   86.9937   13.4655 C.ar    1  UNL1        0.0343
      6 C          63.9026   88.4882   13.5660 C.ar    1  UNL1        0.1739
      7 F          64.6521   89.1250   14.6986 F       1  UNL1       -0.2010
      8 C          62.9946   84.8624   12.2323 C.ar    1  UNL1        0.1012
      9 C          63.4117   84.1727   10.9673 C.ar    1  UNL1        0.0258
     10 C          63.3325   82.6781   10.8667 C.ar    1  UNL1        0.0638
     11 C          62.8361   81.8733   12.0311 C.ar    1  UNL1        0.2765
     12 O          62.7568   80.3788   11.9306 O.2     1  UNL1       -0.2655
     13 N          62.4189   82.5631   13.2962 N.ar    1  UNL1       -0.2146
     14 C          61.9225   81.7583   14.4606 C.3     1  UNL1        0.1571
     15 N          62.4982   84.0576   13.3967 N.ar    1  UNL1       -0.1668
     16 O          63.3115   90.8405   12.6347 O.3     1  UNL1       -0.4731
     17 C          64.3542   91.5901   11.8597 C.3     1  UNL1        0.2070
     18 C          65.4109   92.3702   12.5843 C.3     1  UNL1        0.0646
     19 C          66.7643   92.5549   11.9646 C.3     1  UNL1        0.0759
     20 C          68.4708   92.2664    9.1980 C.3     1  UNL1        0.0173
     21 C          67.7661   93.5019    9.6745 C.3     1  UNL1        0.0576
     22 C          67.7222   94.8217    8.9630 C.3     1  UNL1        0.0174
     23 C          66.9106   95.7700    9.7950 C.3     1  UNL1        0.0187
     24 C          66.4530   95.0363   11.0206 C.3     1  UNL1        0.0721
     25 N          66.9817   93.6345   10.9462 N.3     1  UNL1       -0.2738
@<TRIPOS>BOND
     1    21    20    1
     2    21    22    1
     3    22    23    1
     4    23    24    1
     5    24    25    1
     6    25    19    1
     7    19    18    1
     8    18    17    1
     9    17    16    1
    10    16     1    1
    11     1     2   ar
    12     2     3   ar
    13     3     4   ar
    14     4     8    1
    15     8     9   ar
    16     9    10   ar
    17    10    11   ar
    18    11    12    2
    19    11    13   ar
    20    13    14    1
    21    13    15   ar
    22     4     5   ar
    23     5     6   ar
    24     6     7    1
    25    25    21    1
    26     6     1   ar
    27    15     8   ar
@<TRIPOS>MOLECULE
*****
 25 27 0 0 0
SMALL
GASTEIGER

@<TRIPOS>ATOM
      1 C          63.9426   83.0798   14.1792 C.ar    1  UNL1        0.1658
      2 C          65.0977   83.9997   13.9158 C.ar    1  UNL1        0.0393
      3 C          65.0218   85.4379   14.3352 C.ar    1  UNL1        0.0048
      4 C          63.7909   85.9560   15.0182 C.ar    1  UNL1        0.0218
      5 C          62.6358   85.0360   15.2816 C.ar    1  UNL1        0.0343
      6 C          62.7117   83.5979   14.8622 C.ar    1  UNL1        0.1739
      7 F          61.5566   82.6778   15.1256 F       1  UNL1       -0.2010
      8 C          63.7150   87.3942   15.4376 C.ar    1  UNL1        0.1012
      9 C          63.1725   87.7537   16.7890 C.ar    1  UNL1        0.0258
     10 C          63.0966   89.1919   17.2085 C.ar    1  UNL1        0.0638
     11 C          63.5634   90.2706   16.2765 C.ar    1  UNL1        0.2765
     12 O          63.4876   91.7087   16.6959 O.2     1  UNL1       -0.2655
     13 N          64.1060   89.9110   14.9251 N.ar    1  UNL1       -0.2146
     14 C          64.5728   90.9897   13.9931 C.3     1  UNL1        0.1571
     15 N          64.1818   88.4729   14.5056 N.ar    1  UNL1       -0.1668
     16 O          64.0185   81.6415   13.7598 O.3     1  UNL1       -0.4731
     17 C          63.5593   81.2343   12.3911 C.3     1  UNL1        0.2070
     18 C          62.7504   82.1838   11.5579 C.3     1  UNL1        0.0646
     19 C          63.4385   83.2280   10.7296 C.3     1  UNL1        0.0759
     20 C          63.0906   84.8929    7.9446 C.3     1  UNL1        0.0173
     21 C          62.6722   85.3579    9.3079 C.3     1  UNL1        0.0576
     22 C          62.0204   86.6698    9.6304 C.3     1  UNL1        0.0174
     23 C          61.7775   86.7154   11.1100 C.3     1  UNL1        0.0187
     24 C          62.2792   85.4316   11.7018 C.3     1  UNL1        0.0721
     25 N          62.8321   84.5926   10.5881 N.3     1  UNL1       -0.2738
@<TRIPOS>BOND
     1    21    20    1
     2    21    22    1
     3    22    23    1
     4    23    24    1
     5    24    25    1
     6    25    19    1
     7    19    18    1
     8    18    17    1
     9    17    16    1
    10    16     1    1
    11     1     2   ar
    12     2     3   ar
    13     3     4   ar
    14     4     8    1
    15     8     9   ar
    16     9    10   ar
    17    10    11   ar
    18    11    12    2
    19    11    13   ar
    20    13    14    1
    21    13    15   ar
    22     4     5   ar
    23     5     6   ar
    24     6     7    1
    25    25    21    1
    26     6     1   ar
    27    15     8   ar
@<TRIPOS>MOLECULE
*****
 25 27 0 0 0
SMALL
GASTEIGER

@<TRIPOS>ATOM
      1 C          61.1245   90.0394   10.4302 C.ar    1  UNL1        0.1658
      2 C          62.2487   90.6592    9.6544 C.ar    1  UNL1        0.0393
      3 C          63.4431   91.2102   10.3754 C.ar    1  UNL1        0.0048
      4 C          63.5132   91.1414   11.8721 C.ar    1  UNL1        0.0218
      5 C          62.3891   90.5215   12.6480 C.ar    1  UNL1        0.0343
      6 C          61.1947   89.9705   11.9270 C.ar    1  UNL1        0.1739
      7 F          60.0704   89.3507   12.7029 F       1  UNL1       -0.2010
      8 C          64.7077   91.6924   12.5931 C.ar    1  UNL1        0.1012
      9 C          65.9130   92.1356   11.8179 C.ar    1  UNL1        0.0258
     10 C          67.1075   92.6866   12.5389 C.ar    1  UNL1        0.0638
     11 C          67.0966   92.7945   14.0350 C.ar    1  UNL1        0.2765
     12 O          68.2909   93.3455   14.7559 O.2     1  UNL1       -0.2655
     13 N          65.8912   92.3513   14.8101 N.ar    1  UNL1       -0.2146
     14 C          65.8803   92.4591   16.3062 C.3     1  UNL1        0.1571
     15 N          64.6968   91.8003   14.0891 N.ar    1  UNL1       -0.1668
     16 O          59.9300   89.4883    9.7093 O.3     1  UNL1       -0.4731
     17 C          60.0111   89.1917    8.2412 C.3     1  UNL1        0.2070
     18 C          59.2425   88.0395    7.6652 C.3     1  UNL1        0.0646
     19 C          59.3987   86.6669    8.2495 C.3     1  UNL1        0.0759
     20 C          61.2051   86.4292   10.9569 C.3     1  UNL1        0.0173
     21 C          61.5902   85.9355    9.5938 C.3     1  UNL1        0.0576
     22 C          62.8733   85.2459    9.2359 C.3     1  UNL1        0.0174
     23 C          62.8361   84.9289    7.7702 C.3     1  UNL1        0.0187
     24 C          61.5299   85.4227    7.2223 C.3     1  UNL1        0.0721
     25 N          60.7600   86.0448    8.3494 N.3     1  UNL1       -0.2738
@<TRIPOS>BOND
     1    21    20    1
     2    21    22    1
     3    22    23    1
     4    23    24    1
     5    24    25    1
     6    25    19    1
     7    19    18    1
     8    18    17    1
     9    17    16    1
    10    16     1    1
    11     1     2   ar
    12     2     3   ar
    13     3     4   ar
    14     4     8    1
    15     8     9   ar
    16     9    10   ar
    17    10    11   ar
    18    11    12    2
    19    11    13   ar
    20    13    14    1
    21    13    15   ar
    22     4     5   ar
    23     5     6   ar
    24     6     7    1
    25    25    21    1
    26     6     1   ar
    27    15     8   ar
@<TRIPOS>MOLECULE
*****
 25 27 0 0 0
SMALL
GASTEIGER

@<TRIPOS>ATOM
      1 C          61.0730   89.5025   10.2611 C.ar    1  UNL1        0.1658
      2 C          62.2739   90.0696    9.5639 C.ar    1  UNL1        0.0393
      3 C          63.3407   90.7668   10.3550 C.ar    1  UNL1        0.0048
      4 C          63.2065   90.8969   11.8433 C.ar    1  UNL1        0.0218
      5 C          62.0056   90.3298   12.5405 C.ar    1  UNL1        0.0343
      6 C          60.9388   89.6326   11.7494 C.ar    1  UNL1        0.1739
      7 F          59.7378   89.0655   12.4466 F       1  UNL1       -0.2010
      8 C          64.2734   91.5941   12.6344 C.ar    1  UNL1        0.1012
      9 C          65.3712   92.3312   11.9264 C.ar    1  UNL1        0.0258
     10 C          66.4381   93.0285   12.7175 C.ar    1  UNL1        0.0638
     11 C          66.4070   92.9885   14.2167 C.ar    1  UNL1        0.2765
     12 O          67.4738   93.6856   15.0078 O.2     1  UNL1       -0.2655
     13 N          65.3091   92.2513   14.9247 N.ar    1  UNL1       -0.2146
     14 C          65.2781   92.2113   16.4238 C.3     1  UNL1        0.1571
     15 N          64.2423   91.5541   14.1336 N.ar    1  UNL1       -0.1668
     16 O          60.0062   88.8053    9.4700 O.3     1  UNL1       -0.4731
     17 C          60.0107   87.3094    9.3601 C.3     1  UNL1        0.2070
     18 C          61.2970   86.5508    9.5022 C.3     1  UNL1        0.0646
     19 C          61.6449   85.9024   10.8093 C.3     1  UNL1        0.0759
     20 C          62.7528   84.4216   13.4980 C.3     1  UNL1        0.0173
     21 C          63.1799   84.1283   12.0903 C.3     1  UNL1        0.0576
     22 C          64.1913   83.1028   11.6714 C.3     1  UNL1        0.0174
     23 C          64.3071   83.1496   10.1765 C.3     1  UNL1        0.0187
     24 C          63.3673   84.2041    9.6717 C.3     1  UNL1        0.0721
     25 N          62.6707   84.8089   10.8544 N.3     1  UNL1       -0.2738
@<TRIPOS>BOND
     1    21    20    1
     2    21    22    1
     3    22    23    1
     4    23    24    1
     5    24    25    1
     6    25    19    1
     7    19    18    1
     8    18    17    1
     9    17    16    1
    10    16     1    1
    11     1     2   ar
    12     2     3   ar
    13     3     4   ar
    14     4     8    1
    15     8     9   ar
    16     9    10   ar
    17    10    11   ar
    18    11    12    2
    19    11    13   ar
    20    13    14    1
    21    13    15   ar
    22     4     5   ar
    23     5     6   ar
    24     6     7    1
    25    25    21    1
    26     6     1   ar
    27    15     8   ar
