@<TRIPOS>MOLECULE
*****
 38 42 0 0 0
SMALL
GASTEIGER

@<TRIPOS>ATOM
      1 C          62.2430   89.3420   10.6801 C.3     1  UNL1        0.0612
      2 C          61.4688   90.4106    9.9668 C.3     1  UNL1        0.0375
      3 C          60.5497   90.0448    8.8392 C.3     1  UNL1        0.0949
      4 N          60.4047   88.6104    8.4250 N.am    1  UNL1       -0.2773
      5 C          59.4855   88.2446    7.2975 C.2     1  UNL1        0.2553
      6 O          59.3405   86.8103    6.8833 O.2     1  UNL1       -0.2720
      7 C          61.1788   87.5419    9.1384 C.3     1  UNL1        0.0949
      8 C          62.0980   87.9077   10.2660 C.3     1  UNL1        0.0375
      9 C          66.2757   93.8133   12.9033 C.ar    1  UNL1        0.1384
     10 C          66.7865   93.2955   14.2152 C.ar    1  UNL1        0.0366
     11 C          66.3198   91.9660   14.7298 C.ar    1  UNL1       -0.0014
     12 C          65.3423   91.1543   13.9324 C.ar    1  UNL1       -0.0246
     13 C          64.8317   91.6721   12.6206 C.ar    1  UNL1       -0.0071
     14 C          65.2983   93.0015   12.1060 C.ar    1  UNL1        0.0337
     15 C          63.8613   91.0284   11.6749 C.3     1  UNL1        0.0989
     16 N          63.1621   89.7079   11.8077 N.3     1  UNL1       -0.2702
     17 C          63.2605   88.7052   12.9187 C.3     1  UNL1        0.0727
     18 C          64.0825   88.7750   14.1716 C.3     1  UNL1        0.0220
     19 C          65.0090   89.8650   14.6227 C.3     1  UNL1        0.0275
     20 C          66.3376   95.6009   11.0191 C.3     1  UNL1        0.2525
     21 O          66.7424   95.1427   12.3889 O.3     1  UNL1       -0.4714
     22 C          58.7113   89.3132    6.5841 C.3     1  UNL1        0.2042
     23 F          57.5859   88.5723    7.2436 F       1  UNL1       -0.2306
     24 C          60.1055   89.6829    6.1725 C.3     1  UNL1        0.0590
     25 C          60.3348   90.8638    5.2764 C.3     1  UNL1        0.0756
     26 N          59.1697   91.6750    4.7921 N.3     1  UNL1       -0.2688
     27 C          57.7755   91.3053    5.2038 C.3     1  UNL1        0.0756
     28 C          57.5463   90.1244    6.0998 C.3     1  UNL1        0.0590
     29 C          59.3990   92.8559    3.8961 C.3     1  UNL1        0.0993
     30 C          60.3489   92.7471    2.7402 C.ar    1  UNL1       -0.0018
     31 C          59.8311   92.8215    1.3344 C.ar    1  UNL1        0.0179
     32 C          60.7810   92.7127    0.1785 C.ar    1  UNL1        0.1000
     33 N          62.2486   92.5294    0.4287 N.ar    1  UNL1       -0.2296
     34 C          62.7664   92.4550    1.8344 C.ar    1  UNL1        0.1251
     35 N          64.2340   92.2717    2.0846 N.pl3   1  UNL1       -0.3426
     36 C          61.8165   92.5638    2.9903 C.ar    1  UNL1        0.0310
     37 H          64.8575   92.2003    1.3260 H       1  UNL1        0.1437
     38 H          64.5738   92.2229    3.0073 H       1  UNL1        0.1437
@<TRIPOS>BOND
     1    20    21    1
     2    21     9    1
     3     9    10   ar
     4    10    11   ar
     5    11    12   ar
     6    12    13   ar
     7    13    14   ar
     8    13    15    1
     9    15    16    1
    10    16     1    1
    11     1     2    1
    12     2     3    1
    13     3     4    1
    14     4     5   am
    15     5     6    2
    16     5    22    1
    17    22    23    1
    18    22    24    1
    19    24    25    1
    20    25    26    1
    21    26    29    1
    22    29    30    1
    23    30    31   ar
    24    31    32   ar
    25    32    33   ar
    26    33    34   ar
    27    34    35    1
    28    34    36   ar
    29    26    27    1
    30    27    28    1
    31     4     7    1
    32     7     8    1
    33    16    17    1
    34    17    18    1
    35    18    19    1
    36    14     9   ar
    37     8     1    1
    38    19    12    1
    39    28    22    1
    40    36    30   ar
    41    35    37    1
    42    35    38    1
@<TRIPOS>MOLECULE
*****
 38 42 0 0 0
SMALL
GASTEIGER

@<TRIPOS>ATOM
      1 C          63.6377   87.4478   15.2872 C.3     1  UNL1        0.0612
      2 C          64.7546   88.1173   14.5427 C.3     1  UNL1        0.0375
      3 C          65.0732   89.5592   14.8060 C.3     1  UNL1        0.0949
      4 N          64.2748   90.3317   15.8139 N.am    1  UNL1       -0.2773
      5 C          64.5933   91.7736   16.0773 C.2     1  UNL1        0.2553
      6 O          63.7950   92.5461   17.0851 O.2     1  UNL1       -0.2720
      7 C          63.1579   89.6623   16.5585 C.3     1  UNL1        0.0949
      8 C          62.8393   88.2203   16.2951 C.3     1  UNL1        0.0375
      9 C          63.3661   82.8879   10.7782 C.ar    1  UNL1        0.1384
     10 C          62.9058   81.6421   11.4755 C.ar    1  UNL1        0.0366
     11 C          62.6183   81.6692   12.9475 C.ar    1  UNL1       -0.0014
     12 C          62.7910   82.9422   13.7221 C.ar    1  UNL1       -0.0246
     13 C          63.2512   84.1878   13.0248 C.ar    1  UNL1       -0.0071
     14 C          63.5388   84.1608   11.5529 C.ar    1  UNL1        0.0337
     15 C          63.4863   85.5514   13.6040 C.3     1  UNL1        0.0989
     16 N          63.3192   86.0059   15.0238 N.3     1  UNL1       -0.2702
     17 C          62.8758   85.2092   16.2147 C.3     1  UNL1        0.0727
     18 C          62.4899   83.7611   16.2803 C.3     1  UNL1        0.0220
     19 C          62.4521   82.7522   15.1709 C.3     1  UNL1        0.0275
     20 C          63.3254   84.0521    8.4560 C.3     1  UNL1        0.2525
     21 O          63.6536   82.8607    9.3063 O.3     1  UNL1       -0.4714
     22 C          65.7103   92.4431   15.3327 C.3     1  UNL1        0.2042
     23 F          66.1038   92.7708   16.7427 F       1  UNL1       -0.2306
     24 C          64.9289   91.8830   14.1815 C.3     1  UNL1        0.0590
     25 C          65.4010   92.1060   12.7753 C.3     1  UNL1        0.0756
     26 N          66.6546   92.8893   12.5205 N.3     1  UNL1       -0.2688
     27 C          67.4360   93.4495   13.6718 C.3     1  UNL1        0.0756
     28 C          66.9639   93.2264   15.0780 C.3     1  UNL1        0.0590
     29 C          67.1267   93.1124   11.1143 C.3     1  UNL1        0.0993
     30 C          66.7332   94.3600   10.3801 C.ar    1  UNL1       -0.0018
     31 C          65.4692   95.0792   10.7473 C.ar    1  UNL1        0.0179
     32 C          65.0757   96.3267   10.0131 C.ar    1  UNL1        0.1000
     33 N          65.9463   96.8548    8.9118 N.ar    1  UNL1       -0.2296
     34 C          67.2103   96.1357    8.5445 C.ar    1  UNL1        0.1251
     35 N          68.0810   96.6639    7.4431 N.pl3   1  UNL1       -0.3426
     36 C          67.6038   94.8881    9.2787 C.ar    1  UNL1        0.0310
     37 H          67.8228   97.4826    6.9613 H       1  UNL1        0.1437
     38 H          68.9106   96.1918    7.2022 H       1  UNL1        0.1437
@<TRIPOS>BOND
     1    20    21    1
     2    21     9    1
     3     9    10   ar
     4    10    11   ar
     5    11    12   ar
     6    12    13   ar
     7    13    14   ar
     8    13    15    1
     9    15    16    1
    10    16     1    1
    11     1     2    1
    12     2     3    1
    13     3     4    1
    14     4     5   am
    15     5     6    2
    16     5    22    1
    17    22    23    1
    18    22    24    1
    19    24    25    1
    20    25    26    1
    21    26    29    1
    22    29    30    1
    23    30    31   ar
    24    31    32   ar
    25    32    33   ar
    26    33    34   ar
    27    34    35    1
    28    34    36   ar
    29    26    27    1
    30    27    28    1
    31     4     7    1
    32     7     8    1
    33    16    17    1
    34    17    18    1
    35    18    19    1
    36    14     9   ar
    37     8     1    1
    38    19    12    1
    39    28    22    1
    40    36    30   ar
    41    35    37    1
    42    35    38    1
@<TRIPOS>MOLECULE
*****
 38 42 0 0 0
SMALL
GASTEIGER

@<TRIPOS>ATOM
      1 C          59.1236   93.5214   -1.4808 C.3     1  UNL1        0.0612
      2 C          59.4682   92.2702   -0.7287 C.3     1  UNL1        0.0375
      3 C          59.7892   92.3391    0.7349 C.3     1  UNL1        0.0949
      4 N          59.7655   93.6594    1.4465 N.am    1  UNL1       -0.2773
      5 C          60.0864   93.7284    2.9101 C.2     1  UNL1        0.2553
      6 O          60.0627   95.0486    3.6217 O.2     1  UNL1       -0.2720
      7 C          59.4208   94.9107    0.6945 C.3     1  UNL1        0.0949
      8 C          59.0999   94.8417   -0.7692 C.3     1  UNL1        0.0375
      9 C          55.2820   90.8517   -5.8753 C.ar    1  UNL1        0.1384
     10 C          55.7159   91.4088   -7.1987 C.ar    1  UNL1        0.0366
     11 C          56.8500   92.3884   -7.2646 C.ar    1  UNL1       -0.0014
     12 C          57.5501   92.8108   -6.0070 C.ar    1  UNL1       -0.0246
     13 C          57.1162   92.2537   -4.6838 C.ar    1  UNL1       -0.0071
     14 C          55.9821   91.2742   -4.6178 C.ar    1  UNL1        0.0337
     15 C          57.6736   92.5392   -3.3207 C.3     1  UNL1        0.0989
     16 N          58.8026   93.4524   -2.9444 N.3     1  UNL1       -0.2702
     17 C          59.6530   94.3054   -3.8382 C.3     1  UNL1        0.0727
     18 C          59.5845   94.4562   -5.3290 C.3     1  UNL1        0.0220
     19 C          58.6486   93.7910   -6.2943 C.3     1  UNL1        0.0275
     20 C          53.2136   89.7272   -6.9741 C.3     1  UNL1        0.2525
     21 O          54.1479   89.8722   -5.8095 O.3     1  UNL1       -0.4714
     22 C          60.4311   92.4771    3.6622 C.3     1  UNL1        0.2042
     23 F          61.7330   92.7258    2.9598 F       1  UNL1       -0.2306
     24 C          59.0096   92.6629    4.1034 C.3     1  UNL1        0.0590
     25 C          58.3848   91.6839    5.0528 C.3     1  UNL1        0.0756
     26 N          59.1817   90.5191    5.5608 N.3     1  UNL1       -0.2688
     27 C          60.6032   90.3332    5.1196 C.3     1  UNL1        0.0756
     28 C          61.2279   91.3122    4.1703 C.3     1  UNL1        0.0590
     29 C          58.5569   89.5401    6.5102 C.3     1  UNL1        0.0993
     30 C          59.4222   88.7322    7.4315 C.ar    1  UNL1       -0.0018
     31 C          59.5083   87.2439    7.2667 C.ar    1  UNL1        0.0179
     32 C          60.3736   86.4360    8.1880 C.ar    1  UNL1        0.1000
     33 N          61.1526   87.1167    9.2741 N.ar    1  UNL1       -0.2296
     34 C          61.0666   88.6051    9.4390 C.ar    1  UNL1        0.1251
     35 N          61.8457   89.2858   10.5251 N.pl3   1  UNL1       -0.3426
     36 C          60.2013   89.4129    8.5177 C.ar    1  UNL1        0.0310
     37 H          62.4136   88.7556   11.1298 H       1  UNL1        0.1437
     38 H          61.7892   90.2627   10.6333 H       1  UNL1        0.1437
@<TRIPOS>BOND
     1    20    21    1
     2    21     9    1
     3     9    10   ar
     4    10    11   ar
     5    11    12   ar
     6    12    13   ar
     7    13    14   ar
     8    13    15    1
     9    15    16    1
    10    16     1    1
    11     1     2    1
    12     2     3    1
    13     3     4    1
    14     4     5   am
    15     5     6    2
    16     5    22    1
    17    22    23    1
    18    22    24    1
    19    24    25    1
    20    25    26    1
    21    26    29    1
    22    29    30    1
    23    30    31   ar
    24    31    32   ar
    25    32    33   ar
    26    33    34   ar
    27    34    35    1
    28    34    36   ar
    29    26    27    1
    30    27    28    1
    31     4     7    1
    32     7     8    1
    33    16    17    1
    34    17    18    1
    35    18    19    1
    36    14     9   ar
    37     8     1    1
    38    19    12    1
    39    28    22    1
    40    36    30   ar
    41    35    37    1
    42    35    38    1
@<TRIPOS>MOLECULE
*****
 38 42 0 0 0
SMALL
GASTEIGER

@<TRIPOS>ATOM
      1 C          61.3413   92.2545    3.0679 C.3     1  UNL1        0.0612
      2 C          61.9639   91.2007    3.9350 C.3     1  UNL1        0.0375
      3 C          61.1366   90.4937    4.9673 C.3     1  UNL1        0.0949
      4 N          59.6865   90.8404    5.1324 N.am    1  UNL1       -0.2773
      5 C          58.8592   90.1334    6.1646 C.2     1  UNL1        0.2553
      6 O          57.4093   90.4801    6.3298 O.2     1  UNL1       -0.2720
      7 C          59.0639   91.8941    4.2653 C.3     1  UNL1        0.0949
      8 C          59.8913   92.6012    3.2329 C.3     1  UNL1        0.0375
      9 C          61.5225   94.2344   -3.0350 C.ar    1  UNL1        0.1384
     10 C          62.8501   94.9096   -3.2126 C.ar    1  UNL1        0.0366
     11 C          63.8065   94.9984   -2.0604 C.ar    1  UNL1       -0.0014
     12 C          63.4352   94.4120   -0.7306 C.ar    1  UNL1       -0.0246
     13 C          62.1076   93.7369   -0.5531 C.ar    1  UNL1       -0.0071
     14 C          61.1512   93.6480   -1.7052 C.ar    1  UNL1        0.0337
     15 C          61.5439   93.0913    0.6780 C.3     1  UNL1        0.0989
     16 N          62.1687   92.9615    2.0356 N.3     1  UNL1       -0.2702
     17 C          63.5113   93.4451    2.4972 C.3     1  UNL1        0.0727
     18 C          64.5610   94.1781    1.7155 C.3     1  UNL1        0.0220
     19 C          64.5271   94.6084    0.2789 C.3     1  UNL1        0.0275
     20 C          59.0921   94.0367   -3.9316 C.3     1  UNL1        0.2525
     21 O          60.5662   94.1456   -4.1872 O.3     1  UNL1       -0.4714
     22 C          59.4819   89.0796    7.0319 C.3     1  UNL1        0.2042
     23 F          59.0488   88.2373    5.8686 F       1  UNL1       -0.2306
     24 C          59.6986   90.2878    7.8939 C.3     1  UNL1        0.0590
     25 C          60.3877   90.1498    9.2191 C.3     1  UNL1        0.0756
     26 N          60.8598   88.8035    9.6822 N.3     1  UNL1       -0.2688
     27 C          60.6431   87.5953    8.8202 C.3     1  UNL1        0.0756
     28 C          59.9540   87.7333    7.4949 C.3     1  UNL1        0.0590
     29 C          61.5489   88.6655   11.0075 C.3     1  UNL1        0.0993
     30 C          62.5414   89.7004   11.4480 C.ar    1  UNL1       -0.0018
     31 C          63.1398   90.6409   10.4444 C.ar    1  UNL1        0.0179
     32 C          64.1323   91.6758   10.8850 C.ar    1  UNL1        0.1000
     33 N          64.5262   91.7701   12.3293 N.ar    1  UNL1       -0.2296
     34 C          63.9278   90.8296   13.3329 C.ar    1  UNL1        0.1251
     35 N          64.3218   90.9239   14.7772 N.pl3   1  UNL1       -0.3426
     36 C          62.9353   89.7947   12.8923 C.ar    1  UNL1        0.0310
     37 H          64.9731   91.6031   15.0665 H       1  UNL1        0.1437
     38 H          63.9290   90.3066   15.4359 H       1  UNL1        0.1437
@<TRIPOS>BOND
     1    20    21    1
     2    21     9    1
     3     9    10   ar
     4    10    11   ar
     5    11    12   ar
     6    12    13   ar
     7    13    14   ar
     8    13    15    1
     9    15    16    1
    10    16     1    1
    11     1     2    1
    12     2     3    1
    13     3     4    1
    14     4     5   am
    15     5     6    2
    16     5    22    1
    17    22    23    1
    18    22    24    1
    19    24    25    1
    20    25    26    1
    21    26    29    1
    22    29    30    1
    23    30    31   ar
    24    31    32   ar
    25    32    33   ar
    26    33    34   ar
    27    34    35    1
    28    34    36   ar
    29    26    27    1
    30    27    28    1
    31     4     7    1
    32     7     8    1
    33    16    17    1
    34    17    18    1
    35    18    19    1
    36    14     9   ar
    37     8     1    1
    38    19    12    1
    39    28    22    1
    40    36    30   ar
    41    35    37    1
    42    35    38    1
@<TRIPOS>MOLECULE
*****
 38 42 0 0 0
SMALL
GASTEIGER

@<TRIPOS>ATOM
      1 C          60.4878   92.1440    3.6073 C.3     1  UNL1        0.0612
      2 C          61.3926   91.2127    4.3584 C.3     1  UNL1        0.0375
      3 C          60.8287   90.3072    5.4130 C.3     1  UNL1        0.0949
      4 N          59.3599   90.3331    5.7165 N.am    1  UNL1       -0.2773
      5 C          58.7959   89.4277    6.7710 C.2     1  UNL1        0.2553
      6 O          57.3273   89.4535    7.0746 O.2     1  UNL1       -0.2720
      7 C          58.4551   91.2643    4.9654 C.3     1  UNL1        0.0949
      8 C          59.0191   92.1698    3.9108 C.3     1  UNL1        0.0375
      9 C          59.0119   96.1663   -1.1719 C.ar    1  UNL1        0.1384
     10 C          60.3193   96.6569   -1.7196 C.ar    1  UNL1        0.0366
     11 C          61.6095   96.1773   -1.1234 C.ar    1  UNL1       -0.0014
     12 C          61.5923   95.2071    0.0205 C.ar    1  UNL1       -0.0246
     13 C          60.2849   94.7166    0.5682 C.ar    1  UNL1       -0.0071
     14 C          58.9947   95.1961   -0.0280 C.ar    1  UNL1        0.0337
     15 C          60.0443   93.7563    1.6951 C.3     1  UNL1        0.0989
     16 N          61.0518   93.0494    2.5527 N.3     1  UNL1       -0.2702
     17 C          62.5485   93.1283    2.4951 C.3     1  UNL1        0.0727
     18 C          63.4076   93.9334    1.5658 C.3     1  UNL1        0.0220
     19 C          62.9821   94.8586    0.4644 C.3     1  UNL1        0.0275
     20 C          56.4206   96.0497   -1.3190 C.3     1  UNL1        0.2525
     21 O          57.7217   96.6459   -1.7681 O.3     1  UNL1       -0.4714
     22 C          59.7007   88.4964    7.5221 C.3     1  UNL1        0.2042
     23 F          59.3727   87.6399    6.3351 F       1  UNL1       -0.2306
     24 C          59.7145   89.6762    8.4483 C.3     1  UNL1        0.0590
     25 C          60.5191   89.6273    9.7133 C.3     1  UNL1        0.0756
     26 N          61.3099   88.3985   10.0520 N.3     1  UNL1       -0.2688
     27 C          61.2962   87.2188    9.1259 C.3     1  UNL1        0.0756
     28 C          60.4916   87.2676    7.8609 C.3     1  UNL1        0.0590
     29 C          62.1146   88.3497   11.3171 C.3     1  UNL1        0.0993
     30 C          62.9070   89.5481   11.7486 C.ar    1  UNL1       -0.0018
     31 C          63.2473   89.7404   13.1967 C.ar    1  UNL1        0.0179
     32 C          64.0397   90.9387   13.6282 C.ar    1  UNL1        0.1000
     33 N          64.4916   91.9447   12.6115 N.ar    1  UNL1       -0.2296
     34 C          64.1513   91.7525   11.1634 C.ar    1  UNL1        0.1251
     35 N          64.6032   92.7585   10.1467 N.pl3   1  UNL1       -0.3426
     36 C          63.3589   90.5541   10.7319 C.ar    1  UNL1        0.0310
     37 H          65.1232   93.5450   10.4298 H       1  UNL1        0.1437
     38 H          64.3798   92.6323    9.1962 H       1  UNL1        0.1437
@<TRIPOS>BOND
     1    20    21    1
     2    21     9    1
     3     9    10   ar
     4    10    11   ar
     5    11    12   ar
     6    12    13   ar
     7    13    14   ar
     8    13    15    1
     9    15    16    1
    10    16     1    1
    11     1     2    1
    12     2     3    1
    13     3     4    1
    14     4     5   am
    15     5     6    2
    16     5    22    1
    17    22    23    1
    18    22    24    1
    19    24    25    1
    20    25    26    1
    21    26    29    1
    22    29    30    1
    23    30    31   ar
    24    31    32   ar
    25    32    33   ar
    26    33    34   ar
    27    34    35    1
    28    34    36   ar
    29    26    27    1
    30    27    28    1
    31     4     7    1
    32     7     8    1
    33    16    17    1
    34    17    18    1
    35    18    19    1
    36    14     9   ar
    37     8     1    1
    38    19    12    1
    39    28    22    1
    40    36    30   ar
    41    35    37    1
    42    35    38    1
