@<TRIPOS>MOLECULE
*****
 26 28 0 0 0
SMALL
GASTEIGER

@<TRIPOS>ATOM
      1 N          62.4408   88.1304   10.8259 N.2     1  UNL1       -0.0851
      2 C          62.0548   86.6874   10.6887 C.2     1  UNL1        0.1206
      3 C          61.9496   86.0653    9.3278 C.ar    1  UNL1        0.0292
      4 C          63.0908   85.2600    8.7810 C.ar    1  UNL1        0.0030
      5 C          62.9856   84.6379    7.4201 C.ar    1  UNL1        0.0115
      6 C          61.7391   84.8211    6.6061 C.ar    1  UNL1        0.0585
      7 CL         61.6339   84.1990    5.2453 Cl      1  UNL1       -0.0822
      8 C          60.5978   85.6264    7.1529 C.ar    1  UNL1        0.0228
      9 C          60.7030   86.2485    8.5138 C.ar    1  UNL1        0.0598
     10 CL         59.5618   87.0538    9.0606 Cl      1  UNL1       -0.0822
     11 O          62.5460   88.7525   12.1867 O.2     1  UNL1       -0.3726
     12 C          62.6669   90.2413   12.3235 C.3     1  UNL1        0.2659
     13 CL         67.7528   92.6609   14.3921 Cl      1  UNL1       -0.0822
     14 C          66.4813   92.0560   13.8749 C.ar    1  UNL1        0.0585
     15 C          65.6838   91.1294   14.7440 C.ar    1  UNL1        0.0112
     16 C          64.4124   90.5245   14.2269 C.ar    1  UNL1        0.0011
     17 C          63.9384   90.8462   12.8406 C.ar    1  UNL1        0.0346
     18 C          64.7358   91.7728   11.9715 C.ar    1  UNL1        0.0581
     19 CL         64.2618   92.0946   10.5852 Cl      1  UNL1       -0.0824
     20 C          66.0073   92.3777   12.4887 C.ar    1  UNL1        0.0226
     21 C          61.7741   85.8665   11.9123 C.3     1  UNL1        0.1567
     22 N          62.8466   84.9920   12.4911 N.ar    1  UNL1       -0.3019
     23 C          63.7518   85.3460   13.6335 C.ar    1  UNL1        0.0983
     24 C          64.6669   84.1828   13.8776 C.ar    1  UNL1        0.1193
     25 N          64.3271   83.1098   12.8860 N.ar    1  UNL1       -0.2223
     26 C          63.2021   83.6100   12.0291 C.ar    1  UNL1        0.1789
@<TRIPOS>BOND
     1    13    14    1
     2    14    15   ar
     3    15    16   ar
     4    16    17   ar
     5    17    12    1
     6    12    11    1
     7    11     1    1
     8     1     2    2
     9     2    21    1
    10    21    22    1
    11    22    23   ar
    12    23    24   ar
    13    24    25   ar
    14    25    26   ar
    15     2     3    1
    16     3     4   ar
    17     4     5   ar
    18     5     6   ar
    19     6     7    1
    20     6     8   ar
    21     8     9   ar
    22     9    10    1
    23    17    18   ar
    24    18    19    1
    25    18    20   ar
    26    20    14   ar
    27    26    22   ar
    28     9     3   ar
@<TRIPOS>MOLECULE
*****
 26 28 0 0 0
SMALL
GASTEIGER

@<TRIPOS>ATOM
      1 N          62.8373   88.2248   11.7938 N.2     1  UNL1       -0.0851
      2 C          61.9105   87.1429   11.3243 C.2     1  UNL1        0.1206
      3 C          62.4195   85.7426   11.1502 C.ar    1  UNL1        0.0292
      4 C          62.4845   84.8163   12.3281 C.ar    1  UNL1        0.0030
      5 C          62.9935   83.4161   12.1539 C.ar    1  UNL1        0.0115
      6 C          63.4374   82.9422   10.8018 C.ar    1  UNL1        0.0585
      7 CL         63.9464   81.5420   10.6276 Cl      1  UNL1       -0.0822
      8 C          63.3724   83.8686    9.6237 C.ar    1  UNL1        0.0228
      9 C          62.8634   85.2688    9.7979 C.ar    1  UNL1        0.0598
     10 CL         62.7984   86.1951    8.6200 Cl      1  UNL1       -0.0822
     11 O          62.3283   89.6250   11.9680 O.2     1  UNL1       -0.3726
     12 C          63.2213   90.7910   11.6629 C.3     1  UNL1        0.2659
     13 CL         67.0025   92.8483   15.8425 Cl      1  UNL1       -0.0822
     14 C          66.0572   92.3340   14.7976 C.ar    1  UNL1        0.0585
     15 C          65.0197   91.3138   15.1618 C.ar    1  UNL1        0.0112
     16 C          64.0744   90.7995   14.1169 C.ar    1  UNL1        0.0011
     17 C          64.1666   91.3054   12.7078 C.ar    1  UNL1        0.0346
     18 C          65.2041   92.3255   12.3436 C.ar    1  UNL1        0.0581
     19 CL         65.2964   92.8315   10.9345 Cl      1  UNL1       -0.0824
     20 C          66.1494   92.8399   13.3885 C.ar    1  UNL1        0.0226
     21 C          60.4747   87.4611   11.0291 C.3     1  UNL1        0.1567
     22 N          60.0671   87.8741    9.6459 N.ar    1  UNL1       -0.3019
     23 C          59.3448   87.0191    8.6473 C.ar    1  UNL1        0.0983
     24 C          59.1415   87.8312    7.4026 C.ar    1  UNL1        0.1193
     25 N          59.7382   89.1882    7.6320 N.ar    1  UNL1       -0.2223
     26 C          60.3102   89.2147    9.0184 C.ar    1  UNL1        0.1789
@<TRIPOS>BOND
     1    13    14    1
     2    14    15   ar
     3    15    16   ar
     4    16    17   ar
     5    17    12    1
     6    12    11    1
     7    11     1    1
     8     1     2    2
     9     2    21    1
    10    21    22    1
    11    22    23   ar
    12    23    24   ar
    13    24    25   ar
    14    25    26   ar
    15     2     3    1
    16     3     4   ar
    17     4     5   ar
    18     5     6   ar
    19     6     7    1
    20     6     8   ar
    21     8     9   ar
    22     9    10    1
    23    17    18   ar
    24    18    19    1
    25    18    20   ar
    26    20    14   ar
    27    26    22   ar
    28     9     3   ar
@<TRIPOS>MOLECULE
*****
 26 28 0 0 0
SMALL
GASTEIGER

@<TRIPOS>ATOM
      1 N          62.9824   86.2290   12.5054 N.2     1  UNL1       -0.0851
      2 C          63.5104   85.2650   13.5262 C.2     1  UNL1        0.1206
      3 C          63.1591   83.8096   13.4355 C.ar    1  UNL1        0.0292
      4 C          62.2956   83.1795   14.4877 C.ar    1  UNL1        0.0030
      5 C          61.9443   81.7240   14.3970 C.ar    1  UNL1        0.0115
      6 C          62.4566   80.8986   13.2541 C.ar    1  UNL1        0.0585
      7 CL         62.1054   79.4432   13.1633 Cl      1  UNL1       -0.0822
      8 C          63.3202   81.5287   12.2018 C.ar    1  UNL1        0.0228
      9 C          63.6715   82.9842   12.2925 C.ar    1  UNL1        0.0598
     10 CL         64.5350   83.6143   11.2403 Cl      1  UNL1       -0.0822
     11 O          63.3336   87.6845   12.5961 O.2     1  UNL1       -0.3726
     12 C          62.8084   88.6480   11.5734 C.3     1  UNL1        0.2659
     13 CL         59.0313   86.7430    7.3184 Cl      1  UNL1       -0.0822
     14 C          59.9756   87.2193    8.3822 C.ar    1  UNL1        0.0585
     15 C          61.1537   86.3763    8.7714 C.ar    1  UNL1        0.0112
     16 C          62.0979   86.8526    9.8351 C.ar    1  UNL1        0.0011
     17 C          61.8641   88.1717   10.5097 C.ar    1  UNL1        0.0346
     18 C          60.6860   89.0147   10.1205 C.ar    1  UNL1        0.0581
     19 CL         60.4522   90.3339   10.7950 Cl      1  UNL1       -0.0824
     20 C          59.7418   88.5384    9.0567 C.ar    1  UNL1        0.0226
     21 C          64.3896   85.7565   14.6376 C.3     1  UNL1        0.1567
     22 N          63.7865   86.4686   15.8120 N.ar    1  UNL1       -0.3019
     23 C          63.1558   85.8192   17.0081 C.ar    1  UNL1        0.0983
     24 C          62.6876   86.9044   17.9318 C.ar    1  UNL1        0.1193
     25 N          63.0290   88.2245   17.3067 N.ar    1  UNL1       -0.2223
     26 C          63.7081   87.9552   15.9966 C.ar    1  UNL1        0.1789
@<TRIPOS>BOND
     1    13    14    1
     2    14    15   ar
     3    15    16   ar
     4    16    17   ar
     5    17    12    1
     6    12    11    1
     7    11     1    1
     8     1     2    2
     9     2    21    1
    10    21    22    1
    11    22    23   ar
    12    23    24   ar
    13    24    25   ar
    14    25    26   ar
    15     2     3    1
    16     3     4   ar
    17     4     5   ar
    18     5     6   ar
    19     6     7    1
    20     6     8   ar
    21     8     9   ar
    22     9    10    1
    23    17    18   ar
    24    18    19    1
    25    18    20   ar
    26    20    14   ar
    27    26    22   ar
    28     9     3   ar
@<TRIPOS>MOLECULE
*****
 26 28 0 0 0
SMALL
GASTEIGER

@<TRIPOS>ATOM
      1 N          63.2564   87.5388   12.6778 N.2     1  UNL1       -0.0851
      2 C          62.4446   88.6088   12.0098 C.2     1  UNL1        0.1206
      3 C          61.6051   88.2756   10.8122 C.ar    1  UNL1        0.0292
      4 C          61.0955   89.3723    9.9249 C.ar    1  UNL1        0.0030
      5 C          60.2560   89.0391    8.7273 C.ar    1  UNL1        0.0115
      6 C          59.9261   87.6092    8.4170 C.ar    1  UNL1        0.0585
      7 CL         59.0866   87.2760    7.2194 Cl      1  UNL1       -0.0822
      8 C          60.4357   86.5123    9.3044 C.ar    1  UNL1        0.0228
      9 C          61.2752   86.8455   10.5020 C.ar    1  UNL1        0.0598
     10 CL         61.7848   85.7488   11.3893 Cl      1  UNL1       -0.0822
     11 O          64.0959   87.8720   13.8754 O.2     1  UNL1       -0.3726
     12 C          64.5385   86.7833   14.8074 C.3     1  UNL1        0.2659
     13 CL         62.3807   81.2218   14.1639 Cl      1  UNL1       -0.0822
     14 C          62.9202   82.6122   14.3248 C.ar    1  UNL1        0.0585
     15 C          63.9285   83.1430   13.3494 C.ar    1  UNL1        0.0112
     16 C          64.4680   84.5333   13.5103 C.ar    1  UNL1        0.0011
     17 C          63.9991   85.3929   14.6465 C.ar    1  UNL1        0.0346
     18 C          62.9907   84.8622   15.6219 C.ar    1  UNL1        0.0581
     19 CL         62.5217   85.7218   16.7583 Cl      1  UNL1       -0.0824
     20 C          62.4513   83.4718   15.4611 C.ar    1  UNL1        0.0226
     21 C          62.4723   90.0119   12.5393 C.3     1  UNL1        0.1567
     22 N          63.5856   90.9387   12.1498 N.ar    1  UNL1       -0.3019
     23 C          64.6438   91.4792   13.0652 C.ar    1  UNL1        0.0983
     24 C          65.5483   92.3623   12.2577 C.ar    1  UNL1        0.1193
     25 N          65.0491   92.3675   10.8432 N.ar    1  UNL1       -0.2223
     26 C          63.8361   91.4877   10.7766 C.ar    1  UNL1        0.1789
@<TRIPOS>BOND
     1    13    14    1
     2    14    15   ar
     3    15    16   ar
     4    16    17   ar
     5    17    12    1
     6    12    11    1
     7    11     1    1
     8     1     2    2
     9     2    21    1
    10    21    22    1
    11    22    23   ar
    12    23    24   ar
    13    24    25   ar
    14    25    26   ar
    15     2     3    1
    16     3     4   ar
    17     4     5   ar
    18     5     6   ar
    19     6     7    1
    20     6     8   ar
    21     8     9   ar
    22     9    10    1
    23    17    18   ar
    24    18    19    1
    25    18    20   ar
    26    20    14   ar
    27    26    22   ar
    28     9     3   ar
@<TRIPOS>MOLECULE
*****
 26 28 0 0 0
SMALL
GASTEIGER

@<TRIPOS>ATOM
      1 N          63.5210   88.0023   12.5450 N.2     1  UNL1       -0.0851
      2 C          62.9034   89.3360   12.2453 C.2     1  UNL1        0.1206
      3 C          63.7668   90.5595   12.1571 C.ar    1  UNL1        0.0292
      4 C          63.8630   91.3181   10.8668 C.ar    1  UNL1        0.0030
      5 C          64.7264   92.5416   10.7786 C.ar    1  UNL1        0.0115
      6 C          65.4935   93.0064   11.9809 C.ar    1  UNL1        0.0585
      7 CL         66.3569   94.2298   11.8927 Cl      1  UNL1       -0.0822
      8 C          65.3973   92.2477   13.2713 C.ar    1  UNL1        0.0228
      9 C          64.5340   91.0243   13.3595 C.ar    1  UNL1        0.0598
     10 CL         64.4377   90.2656   14.6499 Cl      1  UNL1       -0.0822
     11 O          62.6576   86.7788   12.6332 O.2     1  UNL1       -0.3726
     12 C          62.8828   85.6326   11.6923 C.3     1  UNL1        0.2659
     13 CL         62.6922   79.9937   13.7335 Cl      1  UNL1       -0.0822
     14 C          62.7398   81.4034   13.2232 C.ar    1  UNL1        0.0585
     15 C          62.2988   82.5350   14.1035 C.ar    1  UNL1        0.0112
     16 C          62.3465   83.9448   13.5932 C.ar    1  UNL1        0.0011
     17 C          62.8351   84.2229   12.2026 C.ar    1  UNL1        0.0346
     18 C          63.2761   83.0913   11.3223 C.ar    1  UNL1        0.0581
     19 CL         63.7648   83.3694    9.9316 Cl      1  UNL1       -0.0824
     20 C          63.2285   81.6816   11.8326 C.ar    1  UNL1        0.0226
     21 C          61.4225   89.4463   12.0337 C.3     1  UNL1        0.1567
     22 N          60.8136   88.9900   10.7410 N.ar    1  UNL1       -0.3019
     23 C          60.7360   89.7874    9.4729 C.ar    1  UNL1        0.0983
     24 C          60.0498   88.9464    8.4377 C.ar    1  UNL1        0.1193
     25 N          59.7032   87.6292    9.0659 N.ar    1  UNL1       -0.2223
     26 C          60.1753   87.6561   10.4895 C.ar    1  UNL1        0.1789
@<TRIPOS>BOND
     1    13    14    1
     2    14    15   ar
     3    15    16   ar
     4    16    17   ar
     5    17    12    1
     6    12    11    1
     7    11     1    1
     8     1     2    2
     9     2    21    1
    10    21    22    1
    11    22    23   ar
    12    23    24   ar
    13    24    25   ar
    14    25    26   ar
    15     2     3    1
    16     3     4   ar
    17     4     5   ar
    18     5     6   ar
    19     6     7    1
    20     6     8   ar
    21     8     9   ar
    22     9    10    1
    23    17    18   ar
    24    18    19    1
    25    18    20   ar
    26    20    14   ar
    27    26    22   ar
    28     9     3   ar
@<TRIPOS>MOLECULE
*****
 26 28 0 0 0
SMALL
GASTEIGER

@<TRIPOS>ATOM
      1 N          63.1307   87.3743   12.3364 N.2     1  UNL1       -0.0851
      2 C          62.4699   88.6469   11.8956 C.2     1  UNL1        0.1206
      3 C          63.2668   89.9148   11.8092 C.ar    1  UNL1        0.0292
      4 C          63.3310   90.6736   10.5170 C.ar    1  UNL1        0.0030
      5 C          64.1278   91.9415   10.4305 C.ar    1  UNL1        0.0115
      6 C          64.8604   92.4506   11.6363 C.ar    1  UNL1        0.0585
      7 CL         65.6572   93.7185   11.5499 Cl      1  UNL1       -0.0822
      8 C          64.7963   91.6917   12.9287 C.ar    1  UNL1        0.0228
      9 C          63.9994   90.4238   13.0151 C.ar    1  UNL1        0.0598
     10 CL         63.9353   89.6649   14.3074 Cl      1  UNL1       -0.0822
     11 O          62.3339   86.1064   12.4228 O.2     1  UNL1       -0.3726
     12 C          62.9205   84.8957   13.0860 C.3     1  UNL1        0.2659
     13 CL         63.1449   79.6737   10.1397 Cl      1  UNL1       -0.0822
     14 C          63.0888   80.9792   10.8763 C.ar    1  UNL1        0.0585
     15 C          63.5564   82.2381   10.2081 C.ar    1  UNL1        0.0112
     16 C          63.5003   83.5436   10.9446 C.ar    1  UNL1        0.0011
     17 C          62.9766   83.5902   12.3495 C.ar    1  UNL1        0.0346
     18 C          62.5091   82.3313   13.0177 C.ar    1  UNL1        0.0581
     19 CL         61.9854   82.3779   14.4226 Cl      1  UNL1       -0.0824
     20 C          62.5652   81.0258   12.2811 C.ar    1  UNL1        0.0226
     21 C          61.0124   88.6514   11.5414 C.3     1  UNL1        0.1567
     22 N          60.5744   88.2535   10.1631 N.ar    1  UNL1       -0.3019
     23 C          60.4660   86.8508    9.6429 C.ar    1  UNL1        0.0983
     24 C          59.9924   86.9188    8.2212 C.ar    1  UNL1        0.1193
     25 N          59.8080   88.3636    7.8628 N.ar    1  UNL1       -0.2223
     26 C          60.1677   89.1885    9.0629 C.ar    1  UNL1        0.1789
@<TRIPOS>BOND
     1    13    14    1
     2    14    15   ar
     3    15    16   ar
     4    16    17   ar
     5    17    12    1
     6    12    11    1
     7    11     1    1
     8     1     2    2
     9     2    21    1
    10    21    22    1
    11    22    23   ar
    12    23    24   ar
    13    24    25   ar
    14    25    26   ar
    15     2     3    1
    16     3     4   ar
    17     4     5   ar
    18     5     6   ar
    19     6     7    1
    20     6     8   ar
    21     8     9   ar
    22     9    10    1
    23    17    18   ar
    24    18    19    1
    25    18    20   ar
    26    20    14   ar
    27    26    22   ar
    28     9     3   ar
@<TRIPOS>MOLECULE
*****
 26 28 0 0 0
SMALL
GASTEIGER

@<TRIPOS>ATOM
      1 N          64.0115   90.8275   12.7298 N.2     1  UNL1       -0.0851
      2 C          64.4106   90.8782   14.1748 C.2     1  UNL1        0.1206
      3 C          65.6802   91.5676   14.5785 C.ar    1  UNL1        0.0292
      4 C          66.8747   91.5306   13.6719 C.ar    1  UNL1        0.0030
      5 C          68.1442   92.2200   14.0756 C.ar    1  UNL1        0.0115
      6 C          68.2193   92.9464   15.3858 C.ar    1  UNL1        0.0585
      7 CL         69.4889   93.6358   15.7894 Cl      1  UNL1       -0.0822
      8 C          67.0248   92.9834   16.2924 C.ar    1  UNL1        0.0228
      9 C          65.7553   92.2940   15.8888 C.ar    1  UNL1        0.0598
     10 CL         64.5608   92.3310   16.7953 Cl      1  UNL1       -0.0822
     11 O          62.7419   90.1381   12.3261 O.2     1  UNL1       -0.3726
     12 C          62.7817   88.7226   11.8316 C.3     1  UNL1        0.2659
     13 CL         59.0231   86.9501    7.5036 Cl      1  UNL1       -0.0822
     14 C          59.9628   87.3932    8.5856 C.ar    1  UNL1        0.0585
     15 C          60.1976   88.8556    8.8225 C.ar    1  UNL1        0.0112
     16 C          61.1372   89.2987    9.9045 C.ar    1  UNL1        0.0011
     17 C          61.8420   88.2795   10.7496 C.ar    1  UNL1        0.0346
     18 C          61.6072   86.8170   10.5127 C.ar    1  UNL1        0.0581
     19 CL         62.3121   85.7977   11.3578 Cl      1  UNL1       -0.0824
     20 C          60.6676   86.3739    9.4307 C.ar    1  UNL1        0.0226
     21 C          63.5403   90.2394   15.2162 C.3     1  UNL1        0.1567
     22 N          63.6583   88.7701   15.4939 N.ar    1  UNL1       -0.3019
     23 C          64.4181   87.7749   14.6679 C.ar    1  UNL1        0.0983
     24 C          64.2667   86.4277   15.3098 C.ar    1  UNL1        0.1193
     25 N          63.4133   86.5903   16.5327 N.ar    1  UNL1       -0.2223
     26 C          63.0374   88.0379   16.6464 C.ar    1  UNL1        0.1789
@<TRIPOS>BOND
     1    13    14    1
     2    14    15   ar
     3    15    16   ar
     4    16    17   ar
     5    17    12    1
     6    12    11    1
     7    11     1    1
     8     1     2    2
     9     2    21    1
    10    21    22    1
    11    22    23   ar
    12    23    24   ar
    13    24    25   ar
    14    25    26   ar
    15     2     3    1
    16     3     4   ar
    17     4     5   ar
    18     5     6   ar
    19     6     7    1
    20     6     8   ar
    21     8     9   ar
    22     9    10    1
    23    17    18   ar
    24    18    19    1
    25    18    20   ar
    26    20    14   ar
    27    26    22   ar
    28     9     3   ar
@<TRIPOS>MOLECULE
*****
 26 28 0 0 0
SMALL
GASTEIGER

@<TRIPOS>ATOM
      1 N          63.3958   87.1748   12.6914 N.2     1  UNL1       -0.0851
      2 C          62.6494   86.1222   11.9265 C.2     1  UNL1        0.1206
      3 C          62.6844   84.6947   12.3858 C.ar    1  UNL1        0.0292
      4 C          62.2895   84.3491   13.7909 C.ar    1  UNL1        0.0030
      5 C          62.3246   82.9215   14.2502 C.ar    1  UNL1        0.0115
      6 C          62.7546   81.8397   13.3044 C.ar    1  UNL1        0.0585
      7 CL         62.7897   80.4122   13.7637 Cl      1  UNL1       -0.0822
      8 C          63.1496   82.1853   11.8992 C.ar    1  UNL1        0.0228
      9 C          63.1145   83.6129   11.4398 C.ar    1  UNL1        0.0598
     10 CL         63.5094   83.9585   10.0347 Cl      1  UNL1       -0.0822
     11 O          63.3607   88.6023   12.2321 O.2     1  UNL1       -0.3726
     12 C          63.0503   89.6972   13.2092 C.3     1  UNL1        0.2659
     13 CL         67.2329   93.7777   14.5712 Cl      1  UNL1       -0.0822
     14 C          66.1873   92.7575   14.2307 C.ar    1  UNL1        0.0585
     15 C          65.6781   91.8237   15.2883 C.ar    1  UNL1        0.0112
     16 C          64.6324   90.8035   14.9478 C.ar    1  UNL1        0.0011
     17 C          64.0959   90.7173   13.5497 C.ar    1  UNL1        0.0346
     18 C          64.6051   91.6512   12.4921 C.ar    1  UNL1        0.0581
     19 CL         64.0687   91.5650   11.0939 Cl      1  UNL1       -0.0824
     20 C          65.6508   92.6713   12.8326 C.ar    1  UNL1        0.0226
     21 C          61.8679   86.4972   10.7023 C.3     1  UNL1        0.1567
     22 N          61.1229   87.7984   10.6574 N.ar    1  UNL1       -0.3019
     23 C          61.3462   88.9088    9.6740 C.ar    1  UNL1        0.0983
     24 C          60.3852   90.0143    9.9969 C.ar    1  UNL1        0.1193
     25 N          59.5679   89.5871   11.1799 N.ar    1  UNL1       -0.2223
     26 C          60.0238   88.2176   11.5881 C.ar    1  UNL1        0.1789
@<TRIPOS>BOND
     1    13    14    1
     2    14    15   ar
     3    15    16   ar
     4    16    17   ar
     5    17    12    1
     6    12    11    1
     7    11     1    1
     8     1     2    2
     9     2    21    1
    10    21    22    1
    11    22    23   ar
    12    23    24   ar
    13    24    25   ar
    14    25    26   ar
    15     2     3    1
    16     3     4   ar
    17     4     5   ar
    18     5     6   ar
    19     6     7    1
    20     6     8   ar
    21     8     9   ar
    22     9    10    1
    23    17    18   ar
    24    18    19    1
    25    18    20   ar
    26    20    14   ar
    27    26    22   ar
    28     9     3   ar
@<TRIPOS>MOLECULE
*****
 26 28 0 0 0
SMALL
GASTEIGER

@<TRIPOS>ATOM
      1 N          63.1780   87.0503   12.8969 N.2     1  UNL1       -0.0851
      2 C          62.9810   88.2566   12.0273 C.2     1  UNL1        0.1206
      3 C          62.0066   88.2087   10.8879 C.ar    1  UNL1        0.0292
      4 C          61.3088   89.4603   10.4447 C.ar    1  UNL1        0.0030
      5 C          60.3344   89.4124    9.3053 C.ar    1  UNL1        0.0115
      6 C          60.0578   88.1129    8.6091 C.ar    1  UNL1        0.0585
      7 CL         59.0834   88.0651    7.4697 Cl      1  UNL1       -0.0822
      8 C          60.7556   86.8612    9.0523 C.ar    1  UNL1        0.0228
      9 C          61.7300   86.9091   10.1917 C.ar    1  UNL1        0.0598
     10 CL         62.4277   85.6575   10.6349 Cl      1  UNL1       -0.0822
     11 O          64.1524   87.0982   14.0363 O.2     1  UNL1       -0.3726
     12 C          64.6856   85.8240   14.6212 C.3     1  UNL1        0.2659
     13 CL         62.2529   80.5628   13.0715 Cl      1  UNL1       -0.0822
     14 C          62.8611   81.8781   13.4589 C.ar    1  UNL1        0.0585
     15 C          64.0378   82.4134   12.6982 C.ar    1  UNL1        0.0112
     16 C          64.6460   83.7287   13.0856 C.ar    1  UNL1        0.0011
     17 C          64.0775   84.5087   14.2338 C.ar    1  UNL1        0.0346
     18 C          62.9007   83.9734   14.9945 C.ar    1  UNL1        0.0581
     19 CL         62.3321   84.7535   16.1427 Cl      1  UNL1       -0.0824
     20 C          62.2925   82.6581   14.6070 C.ar    1  UNL1        0.0226
     21 C          63.7585   89.5106   12.2971 C.3     1  UNL1        0.1567
     22 N          63.8077   90.0787   13.6845 N.ar    1  UNL1       -0.3019
     23 C          64.9057   90.9297   14.2503 C.ar    1  UNL1        0.0983
     24 C          64.5443   91.2725   15.6652 C.ar    1  UNL1        0.1193
     25 N          63.2228   90.6333   15.9738 N.ar    1  UNL1       -0.2223
     26 C          62.7677   89.8955   14.7497 C.ar    1  UNL1        0.1789
@<TRIPOS>BOND
     1    13    14    1
     2    14    15   ar
     3    15    16   ar
     4    16    17   ar
     5    17    12    1
     6    12    11    1
     7    11     1    1
     8     1     2    2
     9     2    21    1
    10    21    22    1
    11    22    23   ar
    12    23    24   ar
    13    24    25   ar
    14    25    26   ar
    15     2     3    1
    16     3     4   ar
    17     4     5   ar
    18     5     6   ar
    19     6     7    1
    20     6     8   ar
    21     8     9   ar
    22     9    10    1
    23    17    18   ar
    24    18    19    1
    25    18    20   ar
    26    20    14   ar
    27    26    22   ar
    28     9     3   ar
