@<TRIPOS>MOLECULE
*****
 22 25 0 0 0
SMALL
GASTEIGER

@<TRIPOS>ATOM
      1 N          63.5049   88.7479   12.9867 N.3     1  UNL1       -0.2644
      2 C          63.0479   90.0312   12.3589 C.3     1  UNL1        0.0774
      3 C          62.1562   90.0004   11.1531 C.3     1  UNL1        0.0439
      4 C          61.7214   88.6862   10.5752 C.ar    1  UNL1       -0.0169
      5 C          62.1785   87.4029   11.2031 C.ar    1  UNL1        0.0195
      6 S          61.5913   86.2678   10.4177 S.2     1  UNL1       -0.0902
      7 C          60.7714   86.8496    9.3044 C.ar    1  UNL1        0.0290
      8 C          59.9621   86.2114    8.2147 C.ar    1  UNL1        0.0088
      9 C          59.2330   87.0679    7.2223 C.ar    1  UNL1        0.0301
     10 C          59.3134   88.5626    7.3196 C.ar    1  UNL1        0.1402
     11 F          58.5844   89.4191    6.3272 F       1  UNL1       -0.2042
     12 C          60.1229   89.2007    8.4094 C.ar    1  UNL1        0.0298
     13 C          60.8518   88.3442    9.4018 C.ar    1  UNL1        0.0045
     14 C          63.0702   87.4337   12.4088 C.3     1  UNL1        0.1056
     15 C          64.3967   88.7787   14.1925 C.3     1  UNL1        0.1010
     16 F          67.1406   93.0797   15.1786 F       1  UNL1       -0.2025
     17 C          65.9517   92.2064   15.4505 C.ar    1  UNL1        0.1589
     18 C          64.9459   92.6104   16.4874 C.ar    1  UNL1        0.1284
     19 N          63.7571   91.7371   16.7594 N.ar    1  UNL1       -0.2402
     20 C          63.5740   90.4599   15.9944 C.ar    1  UNL1        0.0961
     21 C          64.5798   90.0559   14.9575 C.ar    1  UNL1        0.0153
     22 C          65.7687   90.9292   14.6856 C.ar    1  UNL1        0.0299
@<TRIPOS>BOND
     1    16    17    1
     2    17    18   ar
     3    18    19   ar
     4    19    20   ar
     5    20    21   ar
     6    21    15    1
     7    15     1    1
     8     1     2    1
     9     2     3    1
    10     3     4    1
    11     4     5   ar
    12     5     6   ar
    13     6     7   ar
    14     7     8   ar
    15     8     9   ar
    16     9    10   ar
    17    10    11    1
    18    10    12   ar
    19    12    13   ar
    20     5    14    1
    21    21    22   ar
    22    22    17   ar
    23    14     1    1
    24    13     4   ar
    25    13     7   ar
@<TRIPOS>MOLECULE
*****
 22 25 0 0 0
SMALL
GASTEIGER

@<TRIPOS>ATOM
      1 N          61.7042   88.8738   11.0201 N.3     1  UNL1       -0.2644
      2 C          61.9376   89.8665    9.9201 C.3     1  UNL1        0.0774
      3 C          62.9178   90.9851   10.1149 C.3     1  UNL1        0.0439
      4 C          63.6646   91.1110   11.4097 C.ar    1  UNL1       -0.0169
      5 C          63.4311   90.1183   12.5097 C.ar    1  UNL1        0.0195
      6 S          64.3073   90.4949   13.6675 S.2     1  UNL1       -0.0902
      7 C          65.0822   91.7204   13.2831 C.ar    1  UNL1        0.0290
      8 C          66.0981   92.5386   14.0234 C.ar    1  UNL1        0.0088
      9 C          66.7169   93.7378   13.3683 C.ar    1  UNL1        0.0301
     10 C          66.3198   94.1186   11.9729 C.ar    1  UNL1        0.1402
     11 F          66.9386   95.3177   11.3178 F       1  UNL1       -0.2042
     12 C          65.3038   93.3002   11.2326 C.ar    1  UNL1        0.0298
     13 C          64.6850   92.1011   11.8877 C.ar    1  UNL1        0.0045
     14 C          62.4510   88.9997   12.3149 C.3     1  UNL1        0.1056
     15 C          60.7240   87.7552   10.8253 C.3     1  UNL1        0.1010
     16 F          63.2410   84.6510    7.5045 F       1  UNL1       -0.2025
     17 C          62.0026   85.4003    7.8979 C.ar    1  UNL1        0.1589
     18 C          60.7843   85.3469    7.0245 C.ar    1  UNL1        0.1284
     19 N          59.5460   86.0962    7.4180 N.ar    1  UNL1       -0.2402
     20 C          59.5258   86.8990    8.6850 C.ar    1  UNL1        0.0961
     21 C          60.7441   86.9524    9.5584 C.ar    1  UNL1        0.0153
     22 C          61.9825   86.2031    9.1649 C.ar    1  UNL1        0.0299
@<TRIPOS>BOND
     1    16    17    1
     2    17    18   ar
     3    18    19   ar
     4    19    20   ar
     5    20    21   ar
     6    21    15    1
     7    15     1    1
     8     1     2    1
     9     2     3    1
    10     3     4    1
    11     4     5   ar
    12     5     6   ar
    13     6     7   ar
    14     7     8   ar
    15     8     9   ar
    16     9    10   ar
    17    10    11    1
    18    10    12   ar
    19    12    13   ar
    20     5    14    1
    21    21    22   ar
    22    22    17   ar
    23    14     1    1
    24    13     4   ar
    25    13     7   ar
@<TRIPOS>MOLECULE
*****
 22 25 0 0 0
SMALL
GASTEIGER

@<TRIPOS>ATOM
      1 N          61.4887   89.9113   10.6059 N.3     1  UNL1       -0.2644
      2 C          61.4933   89.4583   12.0358 C.3     1  UNL1        0.0774
      3 C          62.5606   89.9418   12.9722 C.3     1  UNL1        0.0439
      4 C          63.6234   90.8782   12.4787 C.ar    1  UNL1       -0.0169
      5 C          63.6188   91.3312   11.0487 C.ar    1  UNL1        0.0195
      6 S          64.7871   92.2508   10.8501 S.2     1  UNL1       -0.0902
      7 C          65.5137   92.3662   12.1573 C.ar    1  UNL1        0.0290
      8 C          66.7373   93.1341   12.5610 C.ar    1  UNL1        0.0088
      9 C          67.2417   93.0538   13.9713 C.ar    1  UNL1        0.0301
     10 C          66.5226   92.2055   14.9779 C.ar    1  UNL1        0.1402
     11 F          67.0270   92.1251   16.3883 F       1  UNL1       -0.2042
     12 C          65.2990   91.4376   14.5741 C.ar    1  UNL1        0.0298
     13 C          64.7946   91.5179   13.1638 C.ar    1  UNL1        0.0045
     14 C          62.5514   90.8477   10.1123 C.3     1  UNL1        0.1056
     15 C          60.4212   89.4278    9.6694 C.3     1  UNL1        0.1010
     16 F          63.2271   85.1725    8.6598 F       1  UNL1       -0.2025
     17 C          61.9727   85.9747    8.4782 C.ar    1  UNL1        0.1589
     18 C          60.8669   85.4515    7.6102 C.ar    1  UNL1        0.1284
     19 N          59.6125   86.2537    7.4286 N.ar    1  UNL1       -0.2402
     20 C          59.4639   87.5792    8.1150 C.ar    1  UNL1        0.0961
     21 C          60.5698   88.1024    8.9830 C.ar    1  UNL1        0.0153
     22 C          61.8242   87.3001    9.1646 C.ar    1  UNL1        0.0299
@<TRIPOS>BOND
     1    16    17    1
     2    17    18   ar
     3    18    19   ar
     4    19    20   ar
     5    20    21   ar
     6    21    15    1
     7    15     1    1
     8     1     2    1
     9     2     3    1
    10     3     4    1
    11     4     5   ar
    12     5     6   ar
    13     6     7   ar
    14     7     8   ar
    15     8     9   ar
    16     9    10   ar
    17    10    11    1
    18    10    12   ar
    19    12    13   ar
    20     5    14    1
    21    21    22   ar
    22    22    17   ar
    23    14     1    1
    24    13     4   ar
    25    13     7   ar
@<TRIPOS>MOLECULE
*****
 22 25 0 0 0
SMALL
GASTEIGER

@<TRIPOS>ATOM
      1 N          63.1243   89.4464   13.2593 N.3     1  UNL1       -0.2644
      2 C          63.5433   88.0397   12.9503 C.3     1  UNL1        0.0774
      3 C          62.9484   87.3208   11.7760 C.3     1  UNL1        0.0439
      4 C          61.9344   88.0086   10.9107 C.ar    1  UNL1       -0.0169
      5 C          61.5154   89.4153   11.2197 C.ar    1  UNL1        0.0195
      6 S          60.5025   89.8329   10.1951 S.2     1  UNL1       -0.0902
      7 C          60.2955   88.6842    9.2529 C.ar    1  UNL1        0.0290
      8 C          59.4155   88.5193    8.0495 C.ar    1  UNL1        0.0088
      9 C          59.4204   87.2269    7.2882 C.ar    1  UNL1        0.0301
     10 C          60.3054   86.0994    7.7304 C.ar    1  UNL1        0.1402
     11 F          60.3104   84.8069    6.9691 F       1  UNL1       -0.2042
     12 C          61.1854   86.2643    8.9339 C.ar    1  UNL1        0.0298
     13 C          61.1805   87.5567    9.6951 C.ar    1  UNL1        0.0045
     14 C          62.1104   90.1342   12.3940 C.3     1  UNL1        0.1056
     15 C          63.7193   90.1655   14.4337 C.3     1  UNL1        0.1010
     16 F          67.3433   93.3912   16.2940 F       1  UNL1       -0.2025
     17 C          66.5295   92.8762   15.1440 C.ar    1  UNL1        0.1589
     18 C          66.7138   93.4591   13.7742 C.ar    1  UNL1        0.1284
     19 N          65.8999   92.9441   12.6243 N.ar    1  UNL1       -0.2402
     20 C          64.9017   91.8462   12.8441 C.ar    1  UNL1        0.0961
     21 C          64.7174   91.2633   14.2139 C.ar    1  UNL1        0.0153
     22 C          65.5313   91.7784   15.3639 C.ar    1  UNL1        0.0299
@<TRIPOS>BOND
     1    16    17    1
     2    17    18   ar
     3    18    19   ar
     4    19    20   ar
     5    20    21   ar
     6    21    15    1
     7    15     1    1
     8     1     2    1
     9     2     3    1
    10     3     4    1
    11     4     5   ar
    12     5     6   ar
    13     6     7   ar
    14     7     8   ar
    15     8     9   ar
    16     9    10   ar
    17    10    11    1
    18    10    12   ar
    19    12    13   ar
    20     5    14    1
    21    21    22   ar
    22    22    17   ar
    23    14     1    1
    24    13     4   ar
    25    13     7   ar
@<TRIPOS>MOLECULE
*****
 22 25 0 0 0
SMALL
GASTEIGER

@<TRIPOS>ATOM
      1 N          63.7955   89.5988   13.4525 N.3     1  UNL1       -0.2644
      2 C          63.1186   89.1060   12.2079 C.3     1  UNL1        0.0774
      3 C          62.9313   87.6340   11.9889 C.3     1  UNL1        0.0439
      4 C          63.4209   86.6548   13.0143 C.ar    1  UNL1       -0.0169
      5 C          64.0977   87.1476   14.2588 C.ar    1  UNL1        0.0195
      6 S          64.4728   85.9540   15.0862 S.2     1  UNL1       -0.0902
      7 C          64.0278   84.7234   14.3529 C.ar    1  UNL1        0.0290
      8 C          64.1306   83.2645   14.6859 C.ar    1  UNL1        0.0088
      9 C          63.5832   82.2386   13.7382 C.ar    1  UNL1        0.0301
     10 C          62.9330   82.6717   12.4577 C.ar    1  UNL1        0.1402
     11 F          62.3856   81.6458   11.5101 F       1  UNL1       -0.2042
     12 C          62.8303   84.1307   12.1249 C.ar    1  UNL1        0.0298
     13 C          63.3776   85.1565   13.0724 C.ar    1  UNL1        0.0045
     14 C          64.2850   88.6197   14.4779 C.3     1  UNL1        0.1056
     15 C          63.9828   91.0709   13.6716 C.3     1  UNL1        0.1010
     16 F          68.0349   92.0997   16.7573 F       1  UNL1       -0.2025
     17 C          67.3871   92.1458   15.4053 C.ar    1  UNL1        0.1589
     18 C          68.1175   92.7523   14.2439 C.ar    1  UNL1        0.1284
     19 N          67.4697   92.7984   12.8919 N.ar    1  UNL1       -0.2402
     20 C          66.0914   92.2379   12.7010 C.ar    1  UNL1        0.0961
     21 C          65.3610   91.6314   13.8624 C.ar    1  UNL1        0.0153
     22 C          66.0089   91.5853   15.2145 C.ar    1  UNL1        0.0299
@<TRIPOS>BOND
     1    16    17    1
     2    17    18   ar
     3    18    19   ar
     4    19    20   ar
     5    20    21   ar
     6    21    15    1
     7    15     1    1
     8     1     2    1
     9     2     3    1
    10     3     4    1
    11     4     5   ar
    12     5     6   ar
    13     6     7   ar
    14     7     8   ar
    15     8     9   ar
    16     9    10   ar
    17    10    11    1
    18    10    12   ar
    19    12    13   ar
    20     5    14    1
    21    21    22   ar
    22    22    17   ar
    23    14     1    1
    24    13     4   ar
    25    13     7   ar
@<TRIPOS>MOLECULE
*****
 22 25 0 0 0
SMALL
GASTEIGER

@<TRIPOS>ATOM
      1 N          63.5381   88.7505   13.4099 N.3     1  UNL1       -0.2644
      2 C          64.2012   88.0233   14.5419 C.3     1  UNL1        0.0774
      3 C          64.2586   86.5245   14.5391 C.3     1  UNL1        0.0439
      4 C          63.6528   85.7528   13.4044 C.ar    1  UNL1       -0.0169
      5 C          62.9897   86.4800   12.2724 C.ar    1  UNL1        0.0195
      6 S          62.4837   85.4580   11.2981 S.2     1  UNL1       -0.0902
      7 C          62.8341   84.0991   11.8279 C.ar    1  UNL1        0.0290
      8 C          62.5885   82.7194   11.2931 C.ar    1  UNL1        0.0088
      9 C          63.0655   81.5218   12.0601 C.ar    1  UNL1        0.0301
     10 C          63.7881   81.7040   13.3619 C.ar    1  UNL1        0.1402
     11 F          64.2651   80.5064   14.1290 F       1  UNL1       -0.2042
     12 C          64.0336   83.0838   13.8967 C.ar    1  UNL1        0.0298
     13 C          63.5566   84.2812   13.1297 C.ar    1  UNL1        0.0045
     14 C          62.9324   87.9789   12.2752 C.3     1  UNL1        0.1056
     15 C          63.4808   90.2495   13.4126 C.3     1  UNL1        0.1010
     16 F          67.9244   91.5624   15.7641 F       1  UNL1       -0.2025
     17 C          66.9718   91.7050   14.6143 C.ar    1  UNL1        0.1589
     18 C          67.2882   92.6467   13.4905 C.ar    1  UNL1        0.1284
     19 N          66.3356   92.7894   12.3407 N.ar    1  UNL1       -0.2402
     20 C          65.0664   91.9903   12.3147 C.ar    1  UNL1        0.0961
     21 C          64.7499   91.0486   13.4386 C.ar    1  UNL1        0.0153
     22 C          65.7026   90.9059   14.5884 C.ar    1  UNL1        0.0299
@<TRIPOS>BOND
     1    16    17    1
     2    17    18   ar
     3    18    19   ar
     4    19    20   ar
     5    20    21   ar
     6    21    15    1
     7    15     1    1
     8     1     2    1
     9     2     3    1
    10     3     4    1
    11     4     5   ar
    12     5     6   ar
    13     6     7   ar
    14     7     8   ar
    15     8     9   ar
    16     9    10   ar
    17    10    11    1
    18    10    12   ar
    19    12    13   ar
    20     5    14    1
    21    21    22   ar
    22    22    17   ar
    23    14     1    1
    24    13     4   ar
    25    13     7   ar
@<TRIPOS>MOLECULE
*****
 22 25 0 0 0
SMALL
GASTEIGER

@<TRIPOS>ATOM
      1 N          62.2635   88.2180   11.4828 N.3     1  UNL1       -0.2644
      2 C          61.6395   87.2774   10.4950 C.3     1  UNL1        0.0774
      3 C          61.7988   85.7958   10.6664 C.3     1  UNL1        0.0439
      4 C          62.5821   85.2548   11.8256 C.ar    1  UNL1       -0.0169
      5 C          63.2061   86.1954   12.8134 C.ar    1  UNL1        0.0195
      6 S          63.9164   85.3754   13.8493 S.2     1  UNL1       -0.0902
      7 C          63.7314   83.9280   13.5016 C.ar    1  UNL1        0.0290
      8 C          64.2074   82.6684   14.1624 C.ar    1  UNL1        0.0088
      9 C          63.8587   81.3341   13.5724 C.ar    1  UNL1        0.0301
     10 C          63.0340   81.2595   12.3217 C.ar    1  UNL1        0.1402
     11 F          62.6853   79.9252   11.7317 F       1  UNL1       -0.2042
     12 C          62.5581   82.5192   11.6609 C.ar    1  UNL1        0.0298
     13 C          62.9068   83.8534   12.2509 C.ar    1  UNL1        0.0045
     14 C          63.0468   87.6770   12.6421 C.3     1  UNL1        0.1056
     15 C          62.1042   89.6997   11.3115 C.3     1  UNL1        0.1010
     16 F          65.8622   93.0461   10.0160 F       1  UNL1       -0.2025
     17 C          65.0939   92.2980   11.0647 C.ar    1  UNL1        0.1589
     18 C          65.4361   92.4749   12.5144 C.ar    1  UNL1        0.1284
     19 N          64.6678   91.7267   13.5631 N.ar    1  UNL1       -0.2402
     20 C          63.5571   90.8016   13.1621 C.ar    1  UNL1        0.0961
     21 C          63.2149   90.6247   11.7125 C.ar    1  UNL1        0.0153
     22 C          63.9833   91.3730   10.6637 C.ar    1  UNL1        0.0299
@<TRIPOS>BOND
     1    16    17    1
     2    17    18   ar
     3    18    19   ar
     4    19    20   ar
     5    20    21   ar
     6    21    15    1
     7    15     1    1
     8     1     2    1
     9     2     3    1
    10     3     4    1
    11     4     5   ar
    12     5     6   ar
    13     6     7   ar
    14     7     8   ar
    15     8     9   ar
    16     9    10   ar
    17    10    11    1
    18    10    12   ar
    19    12    13   ar
    20     5    14    1
    21    21    22   ar
    22    22    17   ar
    23    14     1    1
    24    13     4   ar
    25    13     7   ar
@<TRIPOS>MOLECULE
*****
 22 25 0 0 0
SMALL
GASTEIGER

@<TRIPOS>ATOM
      1 N          63.8354   88.6021   14.0453 N.3     1  UNL1       -0.2644
      2 C          63.3016   88.3611   12.6644 C.3     1  UNL1        0.0774
      3 C          63.1389   86.9587   12.1575 C.3     1  UNL1        0.0439
      4 C          63.5100   85.7975   13.0315 C.ar    1  UNL1       -0.0169
      5 C          64.0437   86.0386   14.4124 C.ar    1  UNL1        0.0195
      6 S          64.3230   84.7055   15.0406 S.2     1  UNL1       -0.0902
      7 C          63.9619   83.6404   14.0480 C.ar    1  UNL1        0.0290
      8 C          64.0258   82.1433   14.1144 C.ar    1  UNL1        0.0088
      9 C          63.5871   81.3211   12.9391 C.ar    1  UNL1        0.0301
     10 C          63.0846   81.9960   11.6973 C.ar    1  UNL1        0.1402
     11 F          62.6459   81.1737   10.5219 F       1  UNL1       -0.2042
     12 C          63.0207   83.4931   11.6309 C.ar    1  UNL1        0.0298
     13 C          63.4594   84.3153   12.8062 C.ar    1  UNL1        0.0045
     14 C          64.2064   87.4409   14.9193 C.3     1  UNL1        0.1056
     15 C          63.9981   90.0045   14.5523 C.3     1  UNL1        0.1010
     16 F          64.9739   93.2284   10.5958 F       1  UNL1       -0.2025
     17 C          65.4087   92.5663   11.8696 C.ar    1  UNL1        0.1589
     18 C          66.7663   92.8541   12.4389 C.ar    1  UNL1        0.1284
     19 N          67.2012   92.1920   13.7126 N.ar    1  UNL1       -0.2402
     20 C          66.2784   91.2421   14.4171 C.ar    1  UNL1        0.0961
     21 C          64.9208   90.9543   13.8478 C.ar    1  UNL1        0.0153
     22 C          64.4860   91.6165   12.5740 C.ar    1  UNL1        0.0299
@<TRIPOS>BOND
     1    16    17    1
     2    17    18   ar
     3    18    19   ar
     4    19    20   ar
     5    20    21   ar
     6    21    15    1
     7    15     1    1
     8     1     2    1
     9     2     3    1
    10     3     4    1
    11     4     5   ar
    12     5     6   ar
    13     6     7   ar
    14     7     8   ar
    15     8     9   ar
    16     9    10   ar
    17    10    11    1
    18    10    12   ar
    19    12    13   ar
    20     5    14    1
    21    21    22   ar
    22    22    17   ar
    23    14     1    1
    24    13     4   ar
    25    13     7   ar
@<TRIPOS>MOLECULE
*****
 22 25 0 0 0
SMALL
GASTEIGER

@<TRIPOS>ATOM
      1 N          62.3828   88.3395   11.3720 N.3     1  UNL1       -0.2644
      2 C          62.4690   89.3523   10.2689 C.3     1  UNL1        0.0774
      3 C          63.2710   90.6050   10.4620 C.3     1  UNL1        0.0439
      4 C          63.9868   90.8450   11.7582 C.ar    1  UNL1       -0.0169
      5 C          63.9007   89.8322   12.8612 C.ar    1  UNL1        0.0195
      6 S          64.7075   90.3389   14.0198 S.2     1  UNL1       -0.0902
      7 C          65.2923   91.6649   13.6327 C.ar    1  UNL1        0.0290
      8 C          66.1728   92.6278   14.3725 C.ar    1  UNL1        0.0088
      9 C          66.6080   93.9036   13.7145 C.ar    1  UNL1        0.0301
     10 C          66.1626   94.2164   12.3168 C.ar    1  UNL1        0.1402
     11 F          66.5978   95.4922   11.6587 F       1  UNL1       -0.2042
     12 C          65.2821   93.2534   11.5770 C.ar    1  UNL1        0.0298
     13 C          64.8469   91.9777   12.2350 C.ar    1  UNL1        0.0045
     14 C          63.0986   88.5795   12.6681 C.3     1  UNL1        0.1056
     15 C          61.5807   87.0866   11.1790 C.3     1  UNL1        0.1010
     16 F          63.4321   82.6444   13.1382 F       1  UNL1       -0.2025
     17 C          63.2031   83.5512   11.9655 C.ar    1  UNL1        0.1589
     18 C          63.6709   83.1438   10.5998 C.ar    1  UNL1        0.1284
     19 N          63.4419   84.0506    9.4271 N.ar    1  UNL1       -0.2402
     20 C          62.7451   85.3650    9.6202 C.ar    1  UNL1        0.0961
     21 C          62.2774   85.7724   10.9859 C.ar    1  UNL1        0.0153
     22 C          62.5064   84.8655   12.1586 C.ar    1  UNL1        0.0299
@<TRIPOS>BOND
     1    16    17    1
     2    17    18   ar
     3    18    19   ar
     4    19    20   ar
     5    20    21   ar
     6    21    15    1
     7    15     1    1
     8     1     2    1
     9     2     3    1
    10     3     4    1
    11     4     5   ar
    12     5     6   ar
    13     6     7   ar
    14     7     8   ar
    15     8     9   ar
    16     9    10   ar
    17    10    11    1
    18    10    12   ar
    19    12    13   ar
    20     5    14    1
    21    21    22   ar
    22    22    17   ar
    23    14     1    1
    24    13     4   ar
    25    13     7   ar
