@<TRIPOS>MOLECULE
*****
 36 40 0 0 0
SMALL
GASTEIGER

@<TRIPOS>ATOM
      1 C          59.7881   90.9551    5.2008 C.ar    1  UNL1       -0.0025
      2 C          59.0925   91.9856    4.3616 C.ar    1  UNL1       -0.0014
      3 C          59.8184   92.6412    3.2243 C.ar    1  UNL1        0.0142
      4 C          61.2398   92.2662    2.9262 C.ar    1  UNL1        0.0479
      5 C          61.9354   91.2357    3.7653 C.ar    1  UNL1        0.0142
      6 C          61.2095   90.5801    4.9026 C.ar    1  UNL1       -0.0014
      7 N          61.9657   92.9217    1.7889 N.pl3   1  UNL1       -0.3041
      8 C          61.3171   93.0152    0.4397 C.3     1  UNL1        0.1122
      9 C          62.0429   93.6708   -0.6976 C.3     1  UNL1        0.1122
     10 N          63.4174   94.2329   -0.4856 N.pl3   1  UNL1       -0.3041
     11 C          64.0660   94.1394    0.8637 C.3     1  UNL1        0.1122
     12 C          63.3401   93.4838    2.0009 C.3     1  UNL1        0.1122
     13 C          64.1432   94.8884   -1.6229 C.ar    1  UNL1        0.0481
     14 C          65.0219   96.0767   -1.3663 C.ar    1  UNL1        0.0168
     15 C          65.7477   96.7323   -2.5036 C.ar    1  UNL1        0.0309
     16 C          65.5949   96.1995   -3.8975 C.ar    1  UNL1        0.1402
     17 F          66.3208   96.8551   -5.0347 F       1  UNL1       -0.2042
     18 C          64.7162   95.0112   -4.1540 C.ar    1  UNL1        0.0309
     19 C          63.9904   94.3557   -3.0167 C.ar    1  UNL1        0.0168
     20 C          59.0622   90.2995    6.3380 C.3     1  UNL1        0.1166
     21 C          59.4537   88.3749    8.0388 C.2     1  UNL1        0.2635
     22 O          58.3001   87.6190    7.4487 O.2     1  UNL1       -0.2685
     23 N          59.8346   89.7151    7.4834 N.am    1  UNL1       -0.2957
     24 H          60.5917   90.2113    7.8706 H       1  UNL1        0.1501
     25 C          60.1458   88.2286   10.6165 C.ar    1  UNL1        0.0811
     26 N          61.0845   87.3742   11.4157 N.ar    1  UNL1       -0.2306
     27 C          61.7450   86.4081   10.4774 C.ar    1  UNL1        0.1483
     28 C          62.7609   85.3274   10.7007 C.ar    1  UNL1        0.0488
     29 C          63.2462   84.5039    9.5447 C.ar    1  UNL1        0.0622
     30 CL         64.2622   83.4231    9.7680 Cl      1  UNL1       -0.0821
     31 C          62.7157   84.7612    8.1655 C.ar    1  UNL1        0.0305
     32 C          61.6998   85.8419    7.9422 C.ar    1  UNL1        0.0824
     33 N          61.2144   86.6654    9.0982 N.ar    1  UNL1       -0.2853
     34 C          60.2261   87.7905    9.1841 C.ar    1  UNL1        0.1326
     35 C          59.8086   90.7291   11.2360 C.3     1  UNL1        0.0067
     36 C          59.2790   89.3280   11.1550 C.3     1  UNL1        0.0475
@<TRIPOS>BOND
     1    35    36    1
     2    36    25    1
     3    25    26   ar
     4    26    27   ar
     5    27    28   ar
     6    28    29   ar
     7    29    30    1
     8    29    31   ar
     9    31    32   ar
    10    32    33   ar
    11    33    34   ar
    12    34    21    1
    13    21    22    2
    14    21    23   am
    15    23    20    1
    16    20     1    1
    17     1     2   ar
    18     2     3   ar
    19     3     4   ar
    20     4     7    1
    21     7     8    1
    22     8     9    1
    23     9    10    1
    24    10    13    1
    25    13    14   ar
    26    14    15   ar
    27    15    16   ar
    28    16    17    1
    29    16    18   ar
    30    18    19   ar
    31    10    11    1
    32    11    12    1
    33     4     5   ar
    34     5     6   ar
    35    34    25   ar
    36     6     1   ar
    37    33    27   ar
    38    12     7    1
    39    19    13   ar
    40    23    24    1
@<TRIPOS>MOLECULE
*****
 36 40 0 0 0
SMALL
GASTEIGER

@<TRIPOS>ATOM
      1 C          59.9867   91.4474    4.6484 C.ar    1  UNL1       -0.0025
      2 C          61.4459   91.2140    4.3909 C.ar    1  UNL1       -0.0014
      3 C          62.0995   91.8142    3.1815 C.ar    1  UNL1        0.0142
      4 C          61.2939   92.6478    2.2296 C.ar    1  UNL1        0.0479
      5 C          59.8347   92.8811    2.4871 C.ar    1  UNL1        0.0142
      6 C          59.1811   92.2810    3.6965 C.ar    1  UNL1       -0.0014
      7 N          61.9474   93.2480    1.0202 N.pl3   1  UNL1       -0.3041
      8 C          61.2079   93.3002   -0.2837 C.3     1  UNL1        0.1122
      9 C          61.8614   93.9004   -1.4931 C.3     1  UNL1        0.1122
     10 N          63.2546   94.4483   -1.3986 N.pl3   1  UNL1       -0.3041
     11 C          63.9942   94.3961   -0.0946 C.3     1  UNL1        0.1122
     12 C          63.3406   93.7959    1.1148 C.3     1  UNL1        0.1122
     13 C          63.9082   95.0485   -2.6079 C.ar    1  UNL1        0.0481
     14 C          64.9659   96.0995   -2.4450 C.ar    1  UNL1        0.0168
     15 C          65.6194   96.6997   -3.6544 C.ar    1  UNL1        0.0309
     16 C          65.2153   96.2489   -5.0268 C.ar    1  UNL1        0.1402
     17 F          65.8689   96.8490   -6.2362 F       1  UNL1       -0.2042
     18 C          64.1576   95.1979   -5.1897 C.ar    1  UNL1        0.0309
     19 C          63.5040   94.5977   -3.9803 C.ar    1  UNL1        0.0168
     20 C          59.3332   90.8472    5.8578 C.3     1  UNL1        0.1166
     21 C          59.6346   88.8645    7.5095 C.2     1  UNL1        0.2635
     22 O          58.2799   88.3433    7.1310 O.2     1  UNL1       -0.2685
     23 N          60.1612   90.1164    6.8728 N.am    1  UNL1       -0.2957
     24 H          61.0503   90.4585    7.1212 H       1  UNL1        0.1501
     25 C          60.7420   86.6600    8.5386 C.ar    1  UNL1        0.0811
     26 N          61.6087   86.3639    9.7265 N.ar    1  UNL1       -0.2306
     27 C          61.8650   87.6545   10.4466 C.ar    1  UNL1        0.1483
     28 C          62.6518   87.9750   11.6827 C.ar    1  UNL1        0.0488
     29 C          62.7304   89.3894   12.1760 C.ar    1  UNL1        0.0622
     30 CL         63.5172   89.7100   13.4122 Cl      1  UNL1       -0.0821
     31 C          62.0221   90.4832   11.4331 C.ar    1  UNL1        0.0305
     32 C          61.2352   90.1627   10.1970 C.ar    1  UNL1        0.0824
     33 N          61.1567   88.7484    9.7037 N.ar    1  UNL1       -0.2853
     34 C          60.4626   88.1337    8.5245 C.ar    1  UNL1        0.1326
     35 C          61.2170   84.8727    6.7138 C.3     1  UNL1        0.0067
     36 C          60.2423   85.6584    7.5400 C.3     1  UNL1        0.0475
@<TRIPOS>BOND
     1    35    36    1
     2    36    25    1
     3    25    26   ar
     4    26    27   ar
     5    27    28   ar
     6    28    29   ar
     7    29    30    1
     8    29    31   ar
     9    31    32   ar
    10    32    33   ar
    11    33    34   ar
    12    34    21    1
    13    21    22    2
    14    21    23   am
    15    23    20    1
    16    20     1    1
    17     1     2   ar
    18     2     3   ar
    19     3     4   ar
    20     4     7    1
    21     7     8    1
    22     8     9    1
    23     9    10    1
    24    10    13    1
    25    13    14   ar
    26    14    15   ar
    27    15    16   ar
    28    16    17    1
    29    16    18   ar
    30    18    19   ar
    31    10    11    1
    32    11    12    1
    33     4     5   ar
    34     5     6   ar
    35    34    25   ar
    36     6     1   ar
    37    33    27   ar
    38    12     7    1
    39    19    13   ar
    40    23    24    1
@<TRIPOS>MOLECULE
*****
 36 40 0 0 0
SMALL
GASTEIGER

@<TRIPOS>ATOM
      1 C          59.8051   87.7206    9.0191 C.ar    1  UNL1       -0.0025
      2 C          59.3933   87.2509    7.6554 C.ar    1  UNL1       -0.0014
      3 C          59.3832   88.2109    6.5028 C.ar    1  UNL1        0.0142
      4 C          59.7849   89.6406    6.7139 C.ar    1  UNL1        0.0479
      5 C          60.1967   90.1103    8.0776 C.ar    1  UNL1        0.0142
      6 C          60.2068   89.1503    9.2302 C.ar    1  UNL1       -0.0014
      7 N          59.7747   90.6005    5.5614 N.pl3   1  UNL1       -0.3041
      8 C          61.0484   90.9103    4.8321 C.3     1  UNL1        0.1122
      9 C          61.0383   91.8702    3.6796 C.3     1  UNL1        0.1122
     10 N          59.7545   92.5204    3.2562 N.pl3   1  UNL1       -0.3041
     11 C          58.4808   92.2105    3.9854 C.3     1  UNL1        0.1122
     12 C          58.4909   91.2506    5.1380 C.3     1  UNL1        0.1122
     13 C          59.7443   93.4803    2.1037 C.ar    1  UNL1        0.0481
     14 C          59.0172   93.1274    0.8401 C.ar    1  UNL1        0.0168
     15 C          59.0071   94.0874   -0.3125 C.ar    1  UNL1        0.0309
     16 C          59.7241   95.4002   -0.2015 C.ar    1  UNL1        0.1402
     17 F          59.7140   96.3602   -1.3540 F       1  UNL1       -0.2042
     18 C          60.4512   95.7531    1.0621 C.ar    1  UNL1        0.0309
     19 C          60.4613   94.7931    2.2147 C.ar    1  UNL1        0.0168
     20 C          59.8153   86.7607   10.1716 C.3     1  UNL1        0.1166
     21 C          62.1217   86.5899   11.3553 C.2     1  UNL1        0.2635
     22 O          62.6845   85.8847   10.1569 O.2     1  UNL1       -0.2685
     23 N          60.6872   87.0279   11.3626 N.am    1  UNL1       -0.2957
     24 H          60.3178   87.4907   12.1491 H       1  UNL1        0.1501
     25 C          63.5307   85.8266   13.4947 C.ar    1  UNL1        0.0811
     26 N          64.3505   86.5344   14.5325 N.ar    1  UNL1       -0.2306
     27 C          64.3202   88.0023   14.2254 C.ar    1  UNL1        0.1483
     28 C          64.9478   89.1831   14.9049 C.ar    1  UNL1        0.0488
     29 C          64.7368   90.5633   14.3569 C.ar    1  UNL1        0.0622
     30 CL         65.3645   91.7442   15.0364 Cl      1  UNL1       -0.0821
     31 C          63.8982   90.7628   13.1293 C.ar    1  UNL1        0.0305
     32 C          63.2706   89.5820   12.4497 C.ar    1  UNL1        0.0824
     33 N          63.4815   88.2018   12.9978 N.ar    1  UNL1       -0.2853
     34 C          62.9936   86.8571   12.5463 C.ar    1  UNL1        0.1326
     35 C          64.0993   83.5037   12.4795 C.3     1  UNL1        0.0067
     36 C          63.2901   84.3480   13.4188 C.3     1  UNL1        0.0475
@<TRIPOS>BOND
     1    35    36    1
     2    36    25    1
     3    25    26   ar
     4    26    27   ar
     5    27    28   ar
     6    28    29   ar
     7    29    30    1
     8    29    31   ar
     9    31    32   ar
    10    32    33   ar
    11    33    34   ar
    12    34    21    1
    13    21    22    2
    14    21    23   am
    15    23    20    1
    16    20     1    1
    17     1     2   ar
    18     2     3   ar
    19     3     4   ar
    20     4     7    1
    21     7     8    1
    22     8     9    1
    23     9    10    1
    24    10    13    1
    25    13    14   ar
    26    14    15   ar
    27    15    16   ar
    28    16    17    1
    29    16    18   ar
    30    18    19   ar
    31    10    11    1
    32    11    12    1
    33     4     5   ar
    34     5     6   ar
    35    34    25   ar
    36     6     1   ar
    37    33    27   ar
    38    12     7    1
    39    19    13   ar
    40    23    24    1
@<TRIPOS>MOLECULE
*****
 36 40 0 0 0
SMALL
GASTEIGER

@<TRIPOS>ATOM
      1 C          58.7690   91.0860    5.1805 C.ar    1  UNL1       -0.0025
      2 C          57.8708   90.2270    6.0202 C.ar    1  UNL1       -0.0014
      3 C          58.4599   89.2985    7.0405 C.ar    1  UNL1        0.0142
      4 C          59.9474   89.2291    7.2211 C.ar    1  UNL1        0.0479
      5 C          60.8456   90.0882    6.3814 C.ar    1  UNL1        0.0142
      6 C          60.2565   91.0166    5.3611 C.ar    1  UNL1       -0.0014
      7 N          60.5365   88.3007    8.2413 N.pl3   1  UNL1       -0.3041
      8 C          61.2466   88.8567    9.4399 C.3     1  UNL1        0.1122
      9 C          61.8357   87.9283   10.4601 C.3     1  UNL1        0.1122
     10 N          61.7147   86.4438   10.2818 N.pl3   1  UNL1       -0.3041
     11 C          61.0046   85.8878    9.0833 C.3     1  UNL1        0.1122
     12 C          60.4155   86.8163    8.0630 C.3     1  UNL1        0.1122
     13 C          62.3039   85.5154   11.3021 C.ar    1  UNL1        0.0481
     14 C          62.2910   84.0344   11.0646 C.ar    1  UNL1        0.0168
     15 C          62.8801   83.1060   12.0848 C.ar    1  UNL1        0.0309
     16 C          63.4822   83.6586   13.3427 C.ar    1  UNL1        0.1402
     17 F          64.0713   82.7301   14.3629 F       1  UNL1       -0.2042
     18 C          63.4951   85.1395   13.5802 C.ar    1  UNL1        0.0309
     19 C          62.9059   86.0680   12.5599 C.ar    1  UNL1        0.0168
     20 C          58.1799   92.0144    4.1603 C.3     1  UNL1        0.1166
     21 C          59.6937   93.2260    2.4309 C.2     1  UNL1        0.2635
     22 O          60.0157   94.2784    3.4502 O.2     1  UNL1       -0.2685
     23 N          58.7758   92.0941    2.7860 N.am    1  UNL1       -0.2957
     24 H          58.5644   91.4034    2.1170 H       1  UNL1        0.1501
     25 C          61.7531   93.2943    0.7283 C.ar    1  UNL1        0.0811
     26 N          61.8945   93.3923   -0.7618 N.ar    1  UNL1       -0.2306
     27 C          60.5183   93.4642   -1.3544 C.ar    1  UNL1        0.1483
     28 C          60.0403   93.5714   -2.7721 C.ar    1  UNL1        0.0488
     29 C          58.5704   93.6252   -3.0659 C.ar    1  UNL1        0.0622
     30 CL         58.0923   93.7325   -4.4836 Cl      1  UNL1       -0.0821
     31 C          57.5785   93.5716   -1.9419 C.ar    1  UNL1        0.0305
     32 C          58.0565   93.4643   -0.5242 C.ar    1  UNL1        0.0824
     33 N          59.5264   93.4106   -0.2304 N.ar    1  UNL1       -0.2853
     34 C          60.2895   93.3057    1.0567 C.ar    1  UNL1        0.1326
     35 C          63.0440   91.9651    2.5494 C.3     1  UNL1        0.0067
     36 C          62.8778   93.2014    1.7164 C.3     1  UNL1        0.0475
@<TRIPOS>BOND
     1    35    36    1
     2    36    25    1
     3    25    26   ar
     4    26    27   ar
     5    27    28   ar
     6    28    29   ar
     7    29    30    1
     8    29    31   ar
     9    31    32   ar
    10    32    33   ar
    11    33    34   ar
    12    34    21    1
    13    21    22    2
    14    21    23   am
    15    23    20    1
    16    20     1    1
    17     1     2   ar
    18     2     3   ar
    19     3     4   ar
    20     4     7    1
    21     7     8    1
    22     8     9    1
    23     9    10    1
    24    10    13    1
    25    13    14   ar
    26    14    15   ar
    27    15    16   ar
    28    16    17    1
    29    16    18   ar
    30    18    19   ar
    31    10    11    1
    32    11    12    1
    33     4     5   ar
    34     5     6   ar
    35    34    25   ar
    36     6     1   ar
    37    33    27   ar
    38    12     7    1
    39    19    13   ar
    40    23    24    1
