@<TRIPOS>MOLECULE
*****
 23 25 0 0 0
SMALL
GASTEIGER

@<TRIPOS>ATOM
      1 C          63.7708   90.6047   13.7109 C.ar    1  UNL1       -0.0144
      2 C          62.7383   90.3535   12.6523 C.ar    1  UNL1        0.0051
      3 S          63.2127   90.9931   11.3811 S.2     1  UNL1       -0.0915
      4 C          64.5385   91.6395   11.6541 C.ar    1  UNL1        0.0288
      5 C          65.4762   92.4156   10.7776 C.ar    1  UNL1        0.0065
      6 C          66.7588   92.9517   11.3410 C.ar    1  UNL1        0.0005
      7 C          67.1037   92.7116   12.7809 C.ar    1  UNL1        0.0000
      8 C          66.1660   91.9355   13.6574 C.ar    1  UNL1        0.0002
      9 C          64.8834   91.3994   13.0940 C.ar    1  UNL1        0.0025
     10 C          63.6148   91.1464   16.2471 C.3     1  UNL1        0.0110
     11 C          63.7028   90.1423   15.1362 C.3     1  UNL1        0.0628
     12 C          63.7228   88.6758   15.4508 C.ar    1  UNL1        0.0650
     13 C          64.4213   87.7205   14.5291 C.ar    1  UNL1        0.0152
     14 C          64.4413   86.2539   14.8435 C.ar    1  UNL1        0.0052
     15 C          63.7627   85.7427   16.0798 C.ar    1  UNL1        0.0497
     16 C          63.0643   86.6980   17.0015 C.ar    1  UNL1        0.2220
     17 F          62.3858   86.1867   18.2377 F       1  UNL1       -0.1832
     18 N          63.0443   88.1645   16.6870 N.ar    1  UNL1       -0.2221
     19 C          61.4564   89.5959   12.8330 C.3     1  UNL1        0.0499
     20 C          60.4112   89.6228   11.7575 C.3     1  UNL1        0.0774
     21 N          60.4723   88.6381   10.6276 N.3     1  UNL1       -0.2700
     22 C          60.8134   87.2031   10.9009 C.3     1  UNL1        0.0897
     23 C          60.1922   89.0883    9.2244 C.3     1  UNL1        0.0897
@<TRIPOS>BOND
     1    10    11    1
     2    11    12    1
     3    12    13   ar
     4    13    14   ar
     5    14    15   ar
     6    15    16   ar
     7    16    17    1
     8    16    18   ar
     9    11     1    1
    10     1     2   ar
    11     2    19    1
    12    19    20    1
    13    20    21    1
    14    21    22    1
    15    21    23    1
    16     2     3   ar
    17     3     4   ar
    18     4     5   ar
    19     5     6   ar
    20     6     7   ar
    21     7     8   ar
    22     8     9   ar
    23    18    12   ar
    24     9     1   ar
    25     9     4   ar
@<TRIPOS>MOLECULE
*****
 23 25 0 0 0
SMALL
GASTEIGER

@<TRIPOS>ATOM
      1 C          62.9499   85.3541   12.0117 C.ar    1  UNL1       -0.0144
      2 C          63.5040   86.0790   13.2023 C.ar    1  UNL1        0.0051
      3 S          63.8453   85.0593   14.2481 S.2     1  UNL1       -0.0915
      4 C          63.5021   83.7043   13.7040 C.ar    1  UNL1        0.0288
      5 C          63.6219   82.3281   14.2885 C.ar    1  UNL1        0.0065
      6 C          63.1884   81.1341   13.4908 C.ar    1  UNL1        0.0005
      7 C          62.6350   81.3163   12.1086 C.ar    1  UNL1        0.0000
      8 C          62.5151   82.6925   11.5240 C.ar    1  UNL1        0.0002
      9 C          62.9487   83.8865   12.3217 C.ar    1  UNL1        0.0025
     10 C          62.7420   85.3094    9.4223 C.3     1  UNL1        0.0110
     11 C          62.4795   85.9859   10.7351 C.3     1  UNL1        0.0628
     12 C          61.7467   87.2941   10.7713 C.ar    1  UNL1        0.0650
     13 C          62.2421   88.4540    9.9592 C.ar    1  UNL1        0.0152
     14 C          61.5093   89.7623    9.9953 C.ar    1  UNL1        0.0052
     15 C          60.2811   89.9108   10.8436 C.ar    1  UNL1        0.0497
     16 C          59.7858   88.7511   11.6557 C.ar    1  UNL1        0.2220
     17 F          58.5576   88.8996   12.5039 F       1  UNL1       -0.1832
     18 N          60.5186   87.4427   11.6195 N.ar    1  UNL1       -0.2221
     19 C          63.6852   87.5629   13.3254 C.3     1  UNL1        0.0499
     20 C          64.2788   88.1450   14.5738 C.3     1  UNL1        0.0774
     21 N          63.6752   89.3724   15.1896 N.3     1  UNL1       -0.2700
     22 C          63.6371   90.6577   14.4173 C.3     1  UNL1        0.0897
     23 C          63.1097   89.3144   16.5777 C.3     1  UNL1        0.0897
@<TRIPOS>BOND
     1    10    11    1
     2    11    12    1
     3    12    13   ar
     4    13    14   ar
     5    14    15   ar
     6    15    16   ar
     7    16    17    1
     8    16    18   ar
     9    11     1    1
    10     1     2   ar
    11     2    19    1
    12    19    20    1
    13    20    21    1
    14    21    22    1
    15    21    23    1
    16     2     3   ar
    17     3     4   ar
    18     4     5   ar
    19     5     6   ar
    20     6     7   ar
    21     7     8   ar
    22     8     9   ar
    23    18    12   ar
    24     9     1   ar
    25     9     4   ar
@<TRIPOS>MOLECULE
*****
 23 25 0 0 0
SMALL
GASTEIGER

@<TRIPOS>ATOM
      1 C          65.3835   92.2507   12.8928 C.ar    1  UNL1       -0.0144
      2 C          65.3831   91.5976   14.2432 C.ar    1  UNL1        0.0051
      3 S          64.3765   90.4857   14.2199 S.2     1  UNL1       -0.0915
      4 C          63.7549   90.4516   12.8552 C.ar    1  UNL1        0.0288
      5 C          62.7025   89.5682   12.2534 C.ar    1  UNL1        0.0065
      6 C          62.2726   89.7757   10.8314 C.ar    1  UNL1        0.0005
      7 C          62.8949   90.8666   10.0113 C.ar    1  UNL1        0.0000
      8 C          63.9472   91.7500   10.6130 C.ar    1  UNL1        0.0002
      9 C          64.3772   91.5425   12.0350 C.ar    1  UNL1        0.0025
     10 C          66.3715   94.6062   13.3677 C.3     1  UNL1        0.0110
     11 C          66.2398   93.4088   12.4738 C.3     1  UNL1        0.0628
     12 C          66.9644   93.3695   11.1611 C.ar    1  UNL1        0.0650
     13 C          67.6221   92.1008   10.7051 C.ar    1  UNL1        0.0152
     14 C          68.3467   92.0615    9.3923 C.ar    1  UNL1        0.0052
     15 C          68.4137   93.2910    8.5356 C.ar    1  UNL1        0.0497
     16 C          67.7561   94.5596    8.9916 C.ar    1  UNL1        0.2220
     17 F          67.8232   95.7890    8.1348 F       1  UNL1       -0.1832
     18 N          67.0315   94.5989   10.3044 N.ar    1  UNL1       -0.2221
     19 C          66.2389   91.9878   15.4116 C.3     1  UNL1        0.0499
     20 C          67.6799   91.5739   15.4572 C.3     1  UNL1        0.0774
     21 N          68.7525   92.5472   15.0673 N.3     1  UNL1       -0.2700
     22 C          68.9698   93.7891   15.8801 C.3     1  UNL1        0.0897
     23 C          69.6078   92.2788   13.8647 C.3     1  UNL1        0.0897
@<TRIPOS>BOND
     1    10    11    1
     2    11    12    1
     3    12    13   ar
     4    13    14   ar
     5    14    15   ar
     6    15    16   ar
     7    16    17    1
     8    16    18   ar
     9    11     1    1
    10     1     2   ar
    11     2    19    1
    12    19    20    1
    13    20    21    1
    14    21    22    1
    15    21    23    1
    16     2     3   ar
    17     3     4   ar
    18     4     5   ar
    19     5     6   ar
    20     6     7   ar
    21     7     8   ar
    22     8     9   ar
    23    18    12   ar
    24     9     1   ar
    25     9     4   ar
@<TRIPOS>MOLECULE
*****
 23 25 0 0 0
SMALL
GASTEIGER

@<TRIPOS>ATOM
      1 C          61.4319   88.1704   10.8365 C.ar    1  UNL1       -0.0144
      2 C          62.2037   86.9370   11.2012 C.ar    1  UNL1        0.0051
      3 S          61.9654   85.9090   10.1351 S.2     1  UNL1       -0.0915
      4 C          61.0463   86.5071    9.1116 C.ar    1  UNL1        0.0288
      5 C          60.4671   85.9597    7.8409 C.ar    1  UNL1        0.0065
      6 C          59.5581   86.8098    7.0037 C.ar    1  UNL1        0.0005
      7 C          59.2283   88.2074    7.4372 C.ar    1  UNL1        0.0000
      8 C          59.8075   88.7549    8.7079 C.ar    1  UNL1        0.0002
      9 C          60.7165   87.9047    9.5451 C.ar    1  UNL1        0.0025
     10 C          60.1133   89.8577   12.3078 C.3     1  UNL1        0.0110
     11 C          61.3837   89.4456   11.6249 C.3     1  UNL1        0.0628
     12 C          62.6059   90.3087   11.7305 C.ar    1  UNL1        0.0650
     13 C          63.1041   91.0538   10.5276 C.ar    1  UNL1        0.0152
     14 C          64.3263   91.9169   10.6331 C.ar    1  UNL1        0.0052
     15 C          65.0504   92.0351   11.9415 C.ar    1  UNL1        0.0497
     16 C          64.5522   91.2901   13.1443 C.ar    1  UNL1        0.2220
     17 F          65.2762   91.4083   14.4527 F       1  UNL1       -0.1832
     18 N          63.3300   90.4269   13.0388 N.ar    1  UNL1       -0.2221
     19 C          63.0630   86.7622   12.4182 C.3     1  UNL1        0.0499
     20 C          63.2923   85.3921   12.9839 C.3     1  UNL1        0.0774
     21 N          63.2898   85.1839   14.4694 N.3     1  UNL1       -0.2700
     22 C          62.3914   84.1496   15.0803 C.3     1  UNL1        0.0897
     23 C          64.1857   86.0100   15.3440 C.3     1  UNL1        0.0897
@<TRIPOS>BOND
     1    10    11    1
     2    11    12    1
     3    12    13   ar
     4    13    14   ar
     5    14    15   ar
     6    15    16   ar
     7    16    17    1
     8    16    18   ar
     9    11     1    1
    10     1     2   ar
    11     2    19    1
    12    19    20    1
    13    20    21    1
    14    21    22    1
    15    21    23    1
    16     2     3   ar
    17     3     4   ar
    18     4     5   ar
    19     5     6   ar
    20     6     7   ar
    21     7     8   ar
    22     8     9   ar
    23    18    12   ar
    24     9     1   ar
    25     9     4   ar
@<TRIPOS>MOLECULE
*****
 23 25 0 0 0
SMALL
GASTEIGER

@<TRIPOS>ATOM
      1 C          63.7393   90.7071   13.3347 C.ar    1  UNL1       -0.0144
      2 C          64.6983   91.5154   12.5119 C.ar    1  UNL1        0.0051
      3 S          64.1534   91.6021   11.1171 S.2     1  UNL1       -0.0915
      4 C          62.8576   90.8475   11.0778 C.ar    1  UNL1        0.0288
      5 C          61.8777   90.5926    9.9711 C.ar    1  UNL1        0.0065
      6 C          60.6419   89.7845   10.2350 C.ar    1  UNL1        0.0005
      7 C          60.3860   89.2313   11.6055 C.ar    1  UNL1        0.0000
      8 C          61.3658   89.4862   12.7122 C.ar    1  UNL1        0.0002
      9 C          62.6017   90.2943   12.4484 C.ar    1  UNL1        0.0025
     10 C          64.0999   91.4643   15.7937 C.3     1  UNL1        0.0110
     11 C          63.8911   90.3706   14.7885 C.3     1  UNL1        0.0628
     12 C          63.8343   88.9405   15.2373 C.ar    1  UNL1        0.0650
     13 C          64.4482   87.8641   14.3920 C.ar    1  UNL1        0.0152
     14 C          64.3914   86.4339   14.8407 C.ar    1  UNL1        0.0052
     15 C          63.7206   86.0801   16.1349 C.ar    1  UNL1        0.0497
     16 C          63.1067   87.1564   16.9802 C.ar    1  UNL1        0.2220
     17 F          62.4359   86.8025   18.2744 F       1  UNL1       -0.1832
     18 N          63.1635   88.5866   16.5315 N.ar    1  UNL1       -0.2221
     19 C          65.9776   92.1291   12.9985 C.3     1  UNL1        0.0499
     20 C          67.0628   92.4742   12.0222 C.3     1  UNL1        0.0774
     21 N          66.9535   93.7156   11.1874 N.3     1  UNL1       -0.2700
     22 C          66.2947   94.9410   11.7482 C.3     1  UNL1        0.0897
     23 C          67.5031   93.7317    9.7918 C.3     1  UNL1        0.0897
@<TRIPOS>BOND
     1    10    11    1
     2    11    12    1
     3    12    13   ar
     4    13    14   ar
     5    14    15   ar
     6    15    16   ar
     7    16    17    1
     8    16    18   ar
     9    11     1    1
    10     1     2   ar
    11     2    19    1
    12    19    20    1
    13    20    21    1
    14    21    22    1
    15    21    23    1
    16     2     3   ar
    17     3     4   ar
    18     4     5   ar
    19     5     6   ar
    20     6     7   ar
    21     7     8   ar
    22     8     9   ar
    23    18    12   ar
    24     9     1   ar
    25     9     4   ar
@<TRIPOS>MOLECULE
*****
 23 25 0 0 0
SMALL
GASTEIGER

@<TRIPOS>ATOM
      1 C          66.0805   92.3986   11.9922 C.ar    1  UNL1       -0.0144
      2 C          64.7390   91.7332   11.9062 C.ar    1  UNL1        0.0051
      3 S          64.2728   91.4479   13.3031 S.2     1  UNL1       -0.0915
      4 C          65.3262   91.9369   14.2524 C.ar    1  UNL1        0.0288
      5 C          65.4124   91.9231   15.7498 C.ar    1  UNL1        0.0065
      6 C          66.6159   92.4969   16.4370 C.ar    1  UNL1        0.0005
      7 C          67.7332   93.0845   15.6268 C.ar    1  UNL1        0.0000
      8 C          67.6470   93.0983   14.1294 C.ar    1  UNL1        0.0002
      9 C          66.4435   92.5245   13.4422 C.ar    1  UNL1        0.0025
     10 C          68.0128   91.9836   10.3057 C.3     1  UNL1        0.0110
     11 C          66.9130   92.8575   10.8319 C.3     1  UNL1        0.0628
     12 C          66.6458   94.1903   10.1977 C.ar    1  UNL1        0.0650
     13 C          65.4643   95.0051   10.6339 C.ar    1  UNL1        0.0152
     14 C          65.1971   96.3379    9.9997 C.ar    1  UNL1        0.0052
     15 C          66.1113   96.8559    8.9293 C.ar    1  UNL1        0.0497
     16 C          67.2928   96.0412    8.4931 C.ar    1  UNL1        0.2220
     17 F          68.2070   96.5593    7.4227 F       1  UNL1       -0.1832
     18 N          67.5600   94.7084    9.1273 N.ar    1  UNL1       -0.2221
     19 C          63.9943   91.4098   10.6449 C.3     1  UNL1        0.0499
     20 C          62.5438   91.0329   10.7060 C.3     1  UNL1        0.0774
     21 N          62.1418   89.5884   10.6643 N.3     1  UNL1       -0.2700
     22 C          62.7945   88.6013   11.5862 C.3     1  UNL1        0.0897
     23 C          61.0872   89.1308    9.7007 C.3     1  UNL1        0.0897
@<TRIPOS>BOND
     1    10    11    1
     2    11    12    1
     3    12    13   ar
     4    13    14   ar
     5    14    15   ar
     6    15    16   ar
     7    16    17    1
     8    16    18   ar
     9    11     1    1
    10     1     2   ar
    11     2    19    1
    12    19    20    1
    13    20    21    1
    14    21    22    1
    15    21    23    1
    16     2     3   ar
    17     3     4   ar
    18     4     5   ar
    19     5     6   ar
    20     6     7   ar
    21     7     8   ar
    22     8     9   ar
    23    18    12   ar
    24     9     1   ar
    25     9     4   ar
@<TRIPOS>MOLECULE
*****
 23 25 0 0 0
SMALL
GASTEIGER

@<TRIPOS>ATOM
      1 C          63.7207   89.0364   13.6000 C.ar    1  UNL1       -0.0144
      2 C          63.0137   89.2117   12.2888 C.ar    1  UNL1        0.0051
      3 S          62.7521   87.8496   11.7176 S.2     1  UNL1       -0.0915
      4 C          63.2974   86.8325   12.6759 C.ar    1  UNL1        0.0288
      5 C          63.3261   85.3332   12.6394 C.ar    1  UNL1        0.0065
      6 C          63.9535   84.5675   13.7663 C.ar    1  UNL1        0.0005
      7 C          64.5522   85.3011   14.9297 C.ar    1  UNL1        0.0000
      8 C          64.5234   86.8003   14.9662 C.ar    1  UNL1        0.0002
      9 C          63.8960   87.5660   13.8393 C.ar    1  UNL1        0.0025
     10 C          63.5660   90.2790   15.8765 C.3     1  UNL1        0.0110
     11 C          64.1730   90.1381   14.5120 C.3     1  UNL1        0.0628
     12 C          65.2322   91.0990   14.0596 C.ar    1  UNL1        0.0650
     13 C          66.6296   90.9800   14.5918 C.ar    1  UNL1        0.0152
     14 C          67.6889   91.9409   14.1394 C.ar    1  UNL1        0.0052
     15 C          67.3507   93.0208   13.1547 C.ar    1  UNL1        0.0497
     16 C          65.9534   93.1397   12.6225 C.ar    1  UNL1        0.2220
     17 F          65.6154   94.2196   11.6378 F       1  UNL1       -0.1832
     18 N          64.8942   92.1789   13.0749 N.ar    1  UNL1       -0.2221
     19 C          62.6349   90.5194   11.6592 C.3     1  UNL1        0.0499
     20 C          61.9440   90.5386   10.3279 C.3     1  UNL1        0.0774
     21 N          60.5177   90.0878   10.2165 N.3     1  UNL1       -0.2700
     22 C          60.0910   89.2269    9.0646 C.3     1  UNL1        0.0897
     23 C          59.5181   90.4978   11.2570 C.3     1  UNL1        0.0897
@<TRIPOS>BOND
     1    10    11    1
     2    11    12    1
     3    12    13   ar
     4    13    14   ar
     5    14    15   ar
     6    15    16   ar
     7    16    17    1
     8    16    18   ar
     9    11     1    1
    10     1     2   ar
    11     2    19    1
    12    19    20    1
    13    20    21    1
    14    21    22    1
    15    21    23    1
    16     2     3   ar
    17     3     4   ar
    18     4     5   ar
    19     5     6   ar
    20     6     7   ar
    21     7     8   ar
    22     8     9   ar
    23    18    12   ar
    24     9     1   ar
    25     9     4   ar
@<TRIPOS>MOLECULE
*****
 23 25 0 0 0
SMALL
GASTEIGER

@<TRIPOS>ATOM
      1 C          63.3687   85.8696   12.8856 C.ar    1  UNL1       -0.0144
      2 C          63.8373   85.1104   14.0914 C.ar    1  UNL1        0.0051
      3 S          64.3501   86.1022   15.0931 S.2     1  UNL1       -0.0915
      4 C          64.1985   87.4743   14.5063 C.ar    1  UNL1        0.0288
      5 C          64.5344   88.8361   15.0381 C.ar    1  UNL1        0.0065
      6 C          64.2637   90.0540   14.2055 C.ar    1  UNL1        0.0005
      7 C          63.6572   89.9103   12.8411 C.ar    1  UNL1        0.0000
      8 C          63.3213   88.5485   12.3094 C.ar    1  UNL1        0.0002
      9 C          63.5920   87.3306   13.1420 C.ar    1  UNL1        0.0025
     10 C          63.1646   83.8849   11.2214 C.3     1  UNL1        0.0110
     11 C          62.7803   85.2726   11.6416 C.3     1  UNL1        0.0628
     12 C          61.8075   86.0632   10.8180 C.ar    1  UNL1        0.0650
     13 C          61.7331   85.8498    9.3350 C.ar    1  UNL1        0.0152
     14 C          60.7603   86.6404    8.5113 C.ar    1  UNL1        0.0052
     15 C          59.8618   87.6445    9.1705 C.ar    1  UNL1        0.0497
     16 C          59.9361   87.8579   10.6533 C.ar    1  UNL1        0.2220
     17 F          59.0376   88.8620   11.3124 F       1  UNL1       -0.1832
     18 N          60.9089   87.0673   11.4771 N.ar    1  UNL1       -0.2221
     19 C          63.7996   83.6210   14.2651 C.3     1  UNL1        0.0499
     20 C          62.5053   82.9363   14.5907 C.3     1  UNL1        0.0774
     21 N          62.2399   81.5516   14.0788 N.3     1  UNL1       -0.2700
     22 C          63.3588   80.7400   13.4962 C.3     1  UNL1        0.0897
     23 C          60.8556   80.9784   14.1496 C.3     1  UNL1        0.0897
@<TRIPOS>BOND
     1    10    11    1
     2    11    12    1
     3    12    13   ar
     4    13    14   ar
     5    14    15   ar
     6    15    16   ar
     7    16    17    1
     8    16    18   ar
     9    11     1    1
    10     1     2   ar
    11     2    19    1
    12    19    20    1
    13    20    21    1
    14    21    22    1
    15    21    23    1
    16     2     3   ar
    17     3     4   ar
    18     4     5   ar
    19     5     6   ar
    20     6     7   ar
    21     7     8   ar
    22     8     9   ar
    23    18    12   ar
    24     9     1   ar
    25     9     4   ar
@<TRIPOS>MOLECULE
*****
 23 25 0 0 0
SMALL
GASTEIGER

@<TRIPOS>ATOM
      1 C          63.9351   89.6317   14.0532 C.ar    1  UNL1       -0.0144
      2 C          63.9613   88.1385   14.1940 C.ar    1  UNL1        0.0051
      3 S          63.4572   87.5433   12.9128 S.2     1  UNL1       -0.0915
      4 C          63.1194   88.6686   11.9802 C.ar    1  UNL1        0.0288
      5 C          62.5811   88.6847   10.5802 C.ar    1  UNL1        0.0065
      6 C          62.3381   89.9915    9.8852 C.ar    1  UNL1        0.0005
      7 C          62.6335   91.2822   10.5900 C.ar    1  UNL1        0.0000
      8 C          63.1718   91.2661   11.9900 C.ar    1  UNL1        0.0002
      9 C          63.4148   89.9593   12.6850 C.ar    1  UNL1        0.0025
     10 C          63.4799   90.8738   16.2894 C.3     1  UNL1        0.0110
     11 C          64.3554   90.6232   15.0974 C.3     1  UNL1        0.0628
     12 C          65.6511   91.3642   14.9497 C.ar    1  UNL1        0.0650
     13 C          66.0577   92.3767   15.9791 C.ar    1  UNL1        0.0152
     14 C          67.3535   93.1178   15.8314 C.ar    1  UNL1        0.0052
     15 C          68.2427   92.8463   14.6543 C.ar    1  UNL1        0.0497
     16 C          67.8362   91.8338   13.6249 C.ar    1  UNL1        0.2220
     17 F          68.7255   91.5624   12.4479 F       1  UNL1       -0.1832
     18 N          66.5404   91.0928   13.7726 N.ar    1  UNL1       -0.2221
     19 C          64.4124   87.3747   15.4036 C.3     1  UNL1        0.0499
     20 C          64.1758   85.8960   15.4881 C.3     1  UNL1        0.0774
     21 N          62.9045   85.3729   16.0882 N.3     1  UNL1       -0.2700
     22 C          62.3197   86.0347   17.3007 C.3     1  UNL1        0.0897
     23 C          62.2180   84.1881   15.4759 C.3     1  UNL1        0.0897
@<TRIPOS>BOND
     1    10    11    1
     2    11    12    1
     3    12    13   ar
     4    13    14   ar
     5    14    15   ar
     6    15    16   ar
     7    16    17    1
     8    16    18   ar
     9    11     1    1
    10     1     2   ar
    11     2    19    1
    12    19    20    1
    13    20    21    1
    14    21    22    1
    15    21    23    1
    16     2     3   ar
    17     3     4   ar
    18     4     5   ar
    19     5     6   ar
    20     6     7   ar
    21     7     8   ar
    22     8     9   ar
    23    18    12   ar
    24     9     1   ar
    25     9     4   ar
