@<TRIPOS>MOLECULE
*****
 38 42 0 0 0
SMALL
GASTEIGER

@<TRIPOS>ATOM
      1 C          63.5258   86.6660   16.5274 C.3     1  UNL1        0.0666
      2 S          62.8272   87.9573   16.8347 S.3     1  UNL1       -0.0756
      3 C          64.2932   90.8437   14.6933 C.ar    1  UNL1        0.1432
      4 N          63.8821   91.5821   15.9326 N.ar    1  UNL1       -0.1328
      5 N          63.2829   90.5907   16.8856 N.ar    1  UNL1       -0.1224
      6 C          63.3237   89.2396   16.2353 C.ar    1  UNL1        0.1930
      7 N          63.9481   89.3959   14.8804 N.ar    1  UNL1       -0.2918
      8 C          64.1857   88.2974   13.8870 C.3     1  UNL1        0.1337
      9 C          66.2232   92.6540   11.0535 C.3     1  UNL1        0.0716
     10 C          64.8005   92.1823   10.9919 C.3     1  UNL1        0.0200
     11 C          64.1572   91.5789   12.2052 C.3     1  UNL1        0.0092
     12 C          64.9365   91.4471   13.4800 C.3     1  UNL1        0.0589
     13 C          66.3591   91.9187   13.5417 C.3     1  UNL1        0.0092
     14 C          67.0025   92.5222   12.3284 C.3     1  UNL1        0.0200
     15 C          67.5847   95.3518    8.4810 C.3     1  UNL1        0.0946
     16 C          66.9414   94.7484    9.6943 C.2     1  UNL1        0.2229
     17 O          66.3732   95.6360   10.7616 O.2     1  UNL1       -0.2751
     18 N          66.8664   93.2574    9.8402 N.am    1  UNL1       -0.3060
     19 H          67.2394   92.6748    9.1397 H       1  UNL1        0.1494
     20 C          62.8560   85.3594   16.8344 C.3     1  UNL1        0.0294
     21 C          62.1197   84.6221   15.7554 C.3     1  UNL1        0.0730
     22 N          62.8651   84.0918   14.5666 N.3     1  UNL1       -0.2726
     23 C          63.9654   83.0729   14.5986 C.3     1  UNL1        0.0721
     24 C          64.4213   82.8386   13.1889 C.3     1  UNL1        0.0190
     25 C          63.6027   83.7127   12.2857 C.3     1  UNL1        0.0201
     26 C          64.2583   83.2767   11.0090 C.3     1  UNL1        0.0061
     27 C          63.1580   84.2955   10.9770 C.3     1  UNL1        0.0237
     28 C          62.6409   84.4872   13.1372 C.3     1  UNL1        0.0724
     29 C          62.2659   85.2203   10.2030 C.ar    1  UNL1       -0.0225
     30 C          62.2678   85.1836    8.7034 C.ar    1  UNL1       -0.0043
     31 C          61.3758   86.1083    7.9294 C.ar    1  UNL1        0.0035
     32 C          60.4819   87.0698    8.6550 C.ar    1  UNL1        0.0714
     33 C          60.4800   87.1065   10.1546 C.ar    1  UNL1        0.0035
     34 C          61.3720   86.1818   10.9286 C.ar    1  UNL1       -0.0043
     35 C          59.5898   87.9945    7.8810 C.3     1  UNL1        0.4186
     36 F          58.6977   88.9193    7.1070 F       1  UNL1       -0.1659
     37 F          60.4806   89.1488    8.2334 F       1  UNL1       -0.1659
     38 F          58.6991   86.8403    7.5286 F       1  UNL1       -0.1659
@<TRIPOS>BOND
     1    15    16    1
     2    16    17    2
     3    16    18   am
     4    18     9    1
     5     9    10    1
     6    10    11    1
     7    11    12    1
     8    12     3    1
     9     3     4   ar
    10     4     5   ar
    11     5     6   ar
    12     6     2    1
    13     2     1    1
    14     1    20    1
    15    20    21    1
    16    21    22    1
    17    22    23    1
    18    23    24    1
    19    25    24    1
    20    25    26    1
    21    26    27    1
    22    27    29    1
    23    29    30   ar
    24    30    31   ar
    25    31    32   ar
    26    32    35    1
    27    35    36    1
    28    35    37    1
    29    35    38    1
    30    32    33   ar
    31    33    34   ar
    32    25    28    1
    33     6     7   ar
    34     7     8    1
    35    12    13    1
    36    13    14    1
    37    14     9    1
    38     7     3   ar
    39    28    22    1
    40    27    25    1
    41    34    29   ar
    42    18    19    1
@<TRIPOS>MOLECULE
*****
 38 42 0 0 0
SMALL
GASTEIGER

@<TRIPOS>ATOM
      1 C          64.0197   82.7467   12.4598 C.3     1  UNL1        0.0666
      2 S          64.0589   83.7369   11.3337 S.3     1  UNL1       -0.0756
      3 C          61.4209   86.3752   10.2633 C.ar    1  UNL1        0.1432
      4 N          61.2071   86.3371   11.7475 N.ar    1  UNL1       -0.1328
      5 N          62.1693   85.3442   12.3292 N.ar    1  UNL1       -0.1224
      6 C          62.9777   84.7685   11.2044 C.ar    1  UNL1        0.1930
      7 N          62.5152   85.4057    9.9276 N.ar    1  UNL1       -0.2918
      8 C          63.0526   85.1231    8.5560 C.3     1  UNL1        0.1337
      9 C          59.1738   88.9461    7.3323 C.3     1  UNL1        0.0716
     10 C          60.0660   89.5816    8.3572 C.3     1  UNL1        0.0200
     11 C          60.8150   88.7246    9.3341 C.3     1  UNL1        0.0092
     12 C          60.6718   87.2322    9.2863 C.3     1  UNL1        0.0589
     13 C          59.7796   86.5968    8.2616 C.3     1  UNL1        0.0092
     14 C          59.0306   87.4537    7.2845 C.3     1  UNL1        0.0200
     15 C          58.4239   91.5837    4.4634 C.3     1  UNL1        0.0946
     16 C          59.1729   90.7267    5.4404 C.2     1  UNL1        0.2229
     17 O          60.6701   90.7933    5.5023 O.2     1  UNL1       -0.2751
     18 N          58.4247   89.8031    6.3554 N.am    1  UNL1       -0.3060
     19 H          57.4420   89.7594    6.3147 H       1  UNL1        0.1494
     20 C          64.2350   83.2070   13.8711 C.3     1  UNL1        0.0294
     21 C          64.9731   84.4851   14.1389 C.3     1  UNL1        0.0730
     22 N          64.3774   85.5188   15.0480 N.3     1  UNL1       -0.2726
     23 C          63.7280   85.2572   16.3746 C.3     1  UNL1        0.0721
     24 C          63.2758   86.5724   16.9366 C.3     1  UNL1        0.0190
     25 C          63.6458   87.6468   15.9574 C.3     1  UNL1        0.0201
     26 C          63.0920   88.7872   16.7592 C.3     1  UNL1        0.0061
     27 C          63.7415   89.0487   15.4327 C.3     1  UNL1        0.0237
     28 C          64.3266   86.9956   14.7902 C.3     1  UNL1        0.0724
     29 C          64.1717   90.0092   14.3638 C.ar    1  UNL1       -0.0225
     30 C          65.4083   90.8369   14.5528 C.ar    1  UNL1       -0.0043
     31 C          65.8386   91.7973   13.4839 C.ar    1  UNL1        0.0035
     32 C          65.0322   91.9300   12.2261 C.ar    1  UNL1        0.0714
     33 C          63.7956   91.1022   12.0371 C.ar    1  UNL1        0.0035
     34 C          63.3654   90.1418   13.1060 C.ar    1  UNL1       -0.0043
     35 C          65.4624   92.8904   11.1572 C.3     1  UNL1        0.4186
     36 F          65.8927   93.8509   10.0883 F       1  UNL1       -0.1659
     37 F          66.5035   93.4511   12.0801 F       1  UNL1       -0.1659
     38 F          64.4214   92.3297   10.2344 F       1  UNL1       -0.1659
@<TRIPOS>BOND
     1    15    16    1
     2    16    17    2
     3    16    18   am
     4    18     9    1
     5     9    10    1
     6    10    11    1
     7    11    12    1
     8    12     3    1
     9     3     4   ar
    10     4     5   ar
    11     5     6   ar
    12     6     2    1
    13     2     1    1
    14     1    20    1
    15    20    21    1
    16    21    22    1
    17    22    23    1
    18    23    24    1
    19    25    24    1
    20    25    26    1
    21    26    27    1
    22    27    29    1
    23    29    30   ar
    24    30    31   ar
    25    31    32   ar
    26    32    35    1
    27    35    36    1
    28    35    37    1
    29    35    38    1
    30    32    33   ar
    31    33    34   ar
    32    25    28    1
    33     6     7   ar
    34     7     8    1
    35    12    13    1
    36    13    14    1
    37    14     9    1
    38     7     3   ar
    39    28    22    1
    40    27    25    1
    41    34    29   ar
    42    18    19    1
@<TRIPOS>MOLECULE
*****
 38 42 0 0 0
SMALL
GASTEIGER

@<TRIPOS>ATOM
      1 C          60.0726   88.4448    9.0935 C.3     1  UNL1        0.0666
      2 S          60.1548   89.7503    9.8275 S.3     1  UNL1       -0.0756
      3 C          62.9523   90.4821   12.4168 C.ar    1  UNL1        0.1432
      4 N          61.9718   89.7188   13.2572 N.ar    1  UNL1       -0.1328
      5 N          60.8046   89.3518   12.3895 N.ar    1  UNL1       -0.1224
      6 C          61.0636   89.8882   11.0129 C.ar    1  UNL1        0.1930
      7 N          62.3909   90.5867   11.0297 N.ar    1  UNL1       -0.2918
      8 C          63.0425   91.2700    9.8641 C.3     1  UNL1        0.1337
      9 C          66.8867   92.1625   13.8120 C.3     1  UNL1        0.0716
     10 C          66.1860   92.7726   12.6343 C.3     1  UNL1        0.0200
     11 C          64.8745   92.2124   12.1692 C.3     1  UNL1        0.0092
     12 C          64.2638   91.0422   12.8818 C.3     1  UNL1        0.0589
     13 C          64.9645   90.4322   14.0594 C.3     1  UNL1        0.0092
     14 C          66.2760   90.9923   14.5245 C.3     1  UNL1        0.0200
     15 C          69.6200   93.9024   16.1036 C.3     1  UNL1        0.0946
     16 C          68.3086   93.3422   15.6386 C.2     1  UNL1        0.2229
     17 O          67.1075   93.4017   16.5351 O.2     1  UNL1       -0.2751
     18 N          68.1982   92.7226   14.2770 N.am    1  UNL1       -0.3060
     19 H          68.9865   92.6836   13.6885 H       1  UNL1        0.1494
     20 C          60.7398   87.2247    9.6561 C.3     1  UNL1        0.0294
     21 C          61.8819   86.5881    8.9211 C.3     1  UNL1        0.0730
     22 N          62.6148   85.4306    9.5319 N.3     1  UNL1       -0.2726
     23 C          63.1623   84.2452    8.7936 C.3     1  UNL1        0.0721
     24 C          63.8147   83.3373    9.7937 C.3     1  UNL1        0.0190
     25 C          63.6703   83.9615   11.1499 C.3     1  UNL1        0.0201
     26 C          64.3841   82.8756   11.8992 C.3     1  UNL1        0.0061
     27 C          63.8365   84.0610   12.6374 C.3     1  UNL1        0.0237
     28 C          62.9287   85.2553   10.9881 C.3     1  UNL1        0.0724
     29 C          63.6164   84.8029   13.9224 C.ar    1  UNL1       -0.0225
     30 C          62.7092   84.2323   14.9719 C.ar    1  UNL1       -0.0043
     31 C          62.4890   84.9741   16.2568 C.ar    1  UNL1        0.0035
     32 C          63.1760   86.2866   16.4923 C.ar    1  UNL1        0.0714
     33 C          64.0831   86.8572   15.4428 C.ar    1  UNL1        0.0035
     34 C          64.3033   86.1154   14.1578 C.ar    1  UNL1       -0.0043
     35 C          62.9558   87.0284   17.7772 C.3     1  UNL1        0.4186
     36 F          62.7356   87.7703   19.0623 F       1  UNL1       -0.1659
     37 F          63.4552   88.2887   17.1352 F       1  UNL1       -0.1659
     38 F          62.4564   85.7681   18.4193 F       1  UNL1       -0.1659
@<TRIPOS>BOND
     1    15    16    1
     2    16    17    2
     3    16    18   am
     4    18     9    1
     5     9    10    1
     6    10    11    1
     7    11    12    1
     8    12     3    1
     9     3     4   ar
    10     4     5   ar
    11     5     6   ar
    12     6     2    1
    13     2     1    1
    14     1    20    1
    15    20    21    1
    16    21    22    1
    17    22    23    1
    18    23    24    1
    19    25    24    1
    20    25    26    1
    21    26    27    1
    22    27    29    1
    23    29    30   ar
    24    30    31   ar
    25    31    32   ar
    26    32    35    1
    27    35    36    1
    28    35    37    1
    29    35    38    1
    30    32    33   ar
    31    33    34   ar
    32    25    28    1
    33     6     7   ar
    34     7     8    1
    35    12    13    1
    36    13    14    1
    37    14     9    1
    38     7     3   ar
    39    28    22    1
    40    27    25    1
    41    34    29   ar
    42    18    19    1
@<TRIPOS>MOLECULE
*****
 38 42 0 0 0
SMALL
GASTEIGER

@<TRIPOS>ATOM
      1 C          65.1153   83.8655   13.0314 C.3     1  UNL1        0.0666
      2 S          63.8560   83.3890   12.3702 S.3     1  UNL1       -0.0756
      3 C          62.2469   85.3683    9.4446 C.ar    1  UNL1        0.1432
      4 N          63.2206   84.4989    8.7056 N.ar    1  UNL1       -0.1328
      5 N          63.9418   83.6516    9.7115 N.ar    1  UNL1       -0.1224
      6 C          63.4140   83.9974   11.0724 C.ar    1  UNL1        0.1930
      7 N          62.3665   85.0583   10.9075 N.ar    1  UNL1       -0.2918
      8 C          61.5772   85.6972   12.0115 C.3     1  UNL1        0.1337
      9 C          59.4574   88.3779    7.5980 C.3     1  UNL1        0.0716
     10 C          59.4364   86.9518    7.1331 C.3     1  UNL1        0.0200
     11 C          60.3663   85.9487    7.7487 C.3     1  UNL1        0.0092
     12 C          61.3171   86.3715    8.8290 C.3     1  UNL1        0.0589
     13 C          61.3380   87.7974    9.2939 C.3     1  UNL1        0.0092
     14 C          60.4081   88.8007    8.6783 C.3     1  UNL1        0.0200
     15 C          58.0879   91.2920    5.2779 C.3     1  UNL1        0.0946
     16 C          59.0178   90.2888    5.8935 C.2     1  UNL1        0.2229
     17 O          60.4379   90.1934    5.4201 O.2     1  UNL1       -0.2751
     18 N          58.5275   89.3811    6.9824 N.am    1  UNL1       -0.3060
     19 H          57.5954   89.4437    7.2930 H       1  UNL1        0.1494
     20 C          65.0411   84.8193   14.1868 C.3     1  UNL1        0.0294
     21 C          63.7698   84.9485   14.9723 C.3     1  UNL1        0.0730
     22 N          63.4994   86.1949   15.7618 N.3     1  UNL1       -0.2726
     23 C          62.9287   86.2543   17.1477 C.3     1  UNL1        0.0721
     24 C          62.8288   87.6969   17.5464 C.3     1  UNL1        0.0190
     25 C          63.3377   88.5291   16.4069 C.3     1  UNL1        0.0201
     26 C          63.1220   89.8557   17.0729 C.3     1  UNL1        0.0061
     27 C          63.6927   89.7963   15.6870 C.3     1  UNL1        0.0237
     28 C          63.7522   87.6008   15.3039 C.3     1  UNL1        0.0724
     29 C          64.2271   90.4936   14.4712 C.ar    1  UNL1       -0.0225
     30 C          63.4499   90.4660   13.1885 C.ar    1  UNL1       -0.0043
     31 C          63.9843   91.1633   11.9727 C.ar    1  UNL1        0.0035
     32 C          65.2958   91.8882   12.0396 C.ar    1  UNL1        0.0714
     33 C          66.0730   91.9157   13.3223 C.ar    1  UNL1        0.0035
     34 C          65.5386   91.2185   14.5381 C.ar    1  UNL1       -0.0043
     35 C          65.8302   92.5855   10.8238 C.3     1  UNL1        0.4186
     36 F          66.3646   93.2828    9.6079 F       1  UNL1       -0.1659
     37 F          67.2226   92.4698   11.3695 F       1  UNL1       -0.1659
     38 F          64.4378   92.7012   10.2781 F       1  UNL1       -0.1659
@<TRIPOS>BOND
     1    15    16    1
     2    16    17    2
     3    16    18   am
     4    18     9    1
     5     9    10    1
     6    10    11    1
     7    11    12    1
     8    12     3    1
     9     3     4   ar
    10     4     5   ar
    11     5     6   ar
    12     6     2    1
    13     2     1    1
    14     1    20    1
    15    20    21    1
    16    21    22    1
    17    22    23    1
    18    23    24    1
    19    25    24    1
    20    25    26    1
    21    26    27    1
    22    27    29    1
    23    29    30   ar
    24    30    31   ar
    25    31    32   ar
    26    32    35    1
    27    35    36    1
    28    35    37    1
    29    35    38    1
    30    32    33   ar
    31    33    34   ar
    32    25    28    1
    33     6     7   ar
    34     7     8    1
    35    12    13    1
    36    13    14    1
    37    14     9    1
    38     7     3   ar
    39    28    22    1
    40    27    25    1
    41    34    29   ar
    42    18    19    1
@<TRIPOS>MOLECULE
*****
 38 42 0 0 0
SMALL
GASTEIGER

@<TRIPOS>ATOM
      1 C          61.9883   85.7480   10.2300 C.3     1  UNL1        0.0666
      2 S          61.1318   86.9720   10.0954 S.3     1  UNL1       -0.0756
      3 C          62.9647   90.1167   11.4436 C.ar    1  UNL1        0.1432
      4 N          62.2059   90.6970   10.2871 N.ar    1  UNL1       -0.1328
      5 N          61.4269   89.5896    9.6413 N.ar    1  UNL1       -0.1224
      6 C          61.7043   88.3249   10.3987 C.ar    1  UNL1        0.1930
      7 N          62.6547   88.6506   11.5126 N.ar    1  UNL1       -0.2918
      8 C          63.1994   87.6806   12.5188 C.3     1  UNL1        0.1337
      9 C          65.6921   92.3771   14.2188 C.3     1  UNL1        0.0716
     10 C          64.8388   91.2630   14.7488 C.3     1  UNL1        0.0200
     11 C          63.9296   90.5095   13.8237 C.3     1  UNL1        0.0092
     12 C          63.8738   90.8701   12.3688 C.3     1  UNL1        0.0589
     13 C          64.7271   91.9842   11.8389 C.3     1  UNL1        0.0092
     14 C          65.6362   92.7377   12.7639 C.3     1  UNL1        0.0200
     15 C          68.9980   93.7779   15.9095 C.3     1  UNL1        0.0946
     16 C          68.0889   93.0244   14.9844 C.2     1  UNL1        0.2229
     17 O          68.6676   92.1650   13.8998 O.2     1  UNL1       -0.2751
     18 N          66.6012   93.1305   15.1440 N.am    1  UNL1       -0.3060
     19 H          66.2214   93.6946   15.8559 H       1  UNL1        0.1494
     20 C          62.7230   85.2118    9.0371 C.3     1  UNL1        0.0294
     21 C          63.7116   84.0962    9.2042 C.3     1  UNL1        0.0730
     22 N          63.5379   83.0998   10.3120 N.3     1  UNL1       -0.2726
     23 C          63.4453   81.6112   10.1523 C.3     1  UNL1        0.0721
     24 C          63.2765   81.0085   11.5155 C.3     1  UNL1        0.0190
     25 C          63.2648   82.1246   12.5176 C.3     1  UNL1        0.0201
     26 C          63.0908   81.2504   13.7240 C.3     1  UNL1        0.0061
     27 C          63.1834   82.7390   13.8836 C.3     1  UNL1        0.0237
     28 C          63.4263   83.4171   11.7738 C.3     1  UNL1        0.0724
     29 C          63.1899   83.9531   14.7644 C.ar    1  UNL1       -0.0225
     30 C          62.0469   84.2052   15.7026 C.ar    1  UNL1       -0.0043
     31 C          62.0534   85.4193   16.5833 C.ar    1  UNL1        0.0035
     32 C          63.2028   86.3814   16.5260 C.ar    1  UNL1        0.0714
     33 C          64.3458   86.1293   15.5878 C.ar    1  UNL1        0.0035
     34 C          64.3393   84.9151   14.7070 C.ar    1  UNL1       -0.0043
     35 C          63.2093   87.5955   17.4068 C.3     1  UNL1        0.4186
     36 F          63.2157   88.8097   18.2876 F       1  UNL1       -0.1659
     37 F          62.8149   86.7471   18.5792 F       1  UNL1       -0.1659
     38 F          63.6037   88.4439   16.2343 F       1  UNL1       -0.1659
@<TRIPOS>BOND
     1    15    16    1
     2    16    17    2
     3    16    18   am
     4    18     9    1
     5     9    10    1
     6    10    11    1
     7    11    12    1
     8    12     3    1
     9     3     4   ar
    10     4     5   ar
    11     5     6   ar
    12     6     2    1
    13     2     1    1
    14     1    20    1
    15    20    21    1
    16    21    22    1
    17    22    23    1
    18    23    24    1
    19    25    24    1
    20    25    26    1
    21    26    27    1
    22    27    29    1
    23    29    30   ar
    24    30    31   ar
    25    31    32   ar
    26    32    35    1
    27    35    36    1
    28    35    37    1
    29    35    38    1
    30    32    33   ar
    31    33    34   ar
    32    25    28    1
    33     6     7   ar
    34     7     8    1
    35    12    13    1
    36    13    14    1
    37    14     9    1
    38     7     3   ar
    39    28    22    1
    40    27    25    1
    41    34    29   ar
    42    18    19    1
@<TRIPOS>MOLECULE
*****
 38 42 0 0 0
SMALL
GASTEIGER

@<TRIPOS>ATOM
      1 C          62.7931   87.3491   17.5533 C.3     1  UNL1        0.0666
      2 S          63.5100   86.0758   17.2147 S.3     1  UNL1       -0.0756
      3 C          62.8513   84.5754   13.6960 C.ar    1  UNL1        0.1432
      4 N          62.1392   83.5866   14.5708 N.ar    1  UNL1       -0.1328
      5 N          62.2993   84.0282   15.9953 N.ar    1  UNL1       -0.1224
      6 C          63.1103   85.2901   16.0010 C.ar    1  UNL1        0.1930
      7 N          63.4515   85.6283   14.5800 N.ar    1  UNL1       -0.2918
      8 C          64.2522   86.8115   14.1232 C.3     1  UNL1        0.1337
      9 C          63.1368   84.4122    9.2081 C.3     1  UNL1        0.0716
     10 C          63.8869   83.4178   10.0440 C.3     1  UNL1        0.0200
     11 C          63.7917   83.4722   11.5400 C.3     1  UNL1        0.0092
     12 C          62.9465   84.5210   12.2000 C.3     1  UNL1        0.0589
     13 C          62.1965   85.5153   11.3642 C.3     1  UNL1        0.0092
     14 C          62.2916   85.4610    9.8682 C.3     1  UNL1        0.0200
     15 C          62.1440   84.6811    5.3751 C.3     1  UNL1        0.0946
     16 C          62.0488   84.7355    6.8711 C.2     1  UNL1        0.2229
     17 O          60.7704   85.1677    7.5259 O.2     1  UNL1       -0.2751
     18 N          63.2320   84.3578    7.7121 N.am    1  UNL1       -0.3060
     19 H          64.0710   84.0741    7.2823 H       1  UNL1        0.1494
     20 C          62.6063   88.4061   16.5055 C.3     1  UNL1        0.0294
     21 C          63.1601   89.7832   16.7221 C.3     1  UNL1        0.0730
     22 N          63.8184   90.5136   15.5893 N.3     1  UNL1       -0.2726
     23 C          64.9943   91.4380   15.7014 C.3     1  UNL1        0.0721
     24 C          65.3190   91.9435   14.3269 C.3     1  UNL1        0.0190
     25 C          64.3438   91.3315   13.3655 C.3     1  UNL1        0.0201
     26 C          64.8966   91.9939   12.1385 C.3     1  UNL1        0.0061
     27 C          63.7207   91.0694   12.0264 C.3     1  UNL1        0.0237
     28 C          63.4164   90.4477   14.1457 C.3     1  UNL1        0.0724
     29 C          62.6820   90.3843   11.1887 C.ar    1  UNL1       -0.0225
     30 C          63.0651   89.2221   10.3212 C.ar    1  UNL1       -0.0043
     31 C          62.0264   88.5371    9.4835 C.ar    1  UNL1        0.0035
     32 C          60.6046   89.0142    9.5133 C.ar    1  UNL1        0.0714
     33 C          60.2216   90.1765   10.3807 C.ar    1  UNL1        0.0035
     34 C          61.2602   90.8615   11.2185 C.ar    1  UNL1       -0.0043
     35 C          59.5660   88.3292    8.6755 C.3     1  UNL1        0.4186
     36 F          58.5272   87.6441    7.8378 F       1  UNL1       -0.1659
     37 F          59.6800   89.4146    7.6465 F       1  UNL1       -0.1659
     38 F          59.4519   87.2438    9.7045 F       1  UNL1       -0.1659
@<TRIPOS>BOND
     1    15    16    1
     2    16    17    2
     3    16    18   am
     4    18     9    1
     5     9    10    1
     6    10    11    1
     7    11    12    1
     8    12     3    1
     9     3     4   ar
    10     4     5   ar
    11     5     6   ar
    12     6     2    1
    13     2     1    1
    14     1    20    1
    15    20    21    1
    16    21    22    1
    17    22    23    1
    18    23    24    1
    19    25    24    1
    20    25    26    1
    21    26    27    1
    22    27    29    1
    23    29    30   ar
    24    30    31   ar
    25    31    32   ar
    26    32    35    1
    27    35    36    1
    28    35    37    1
    29    35    38    1
    30    32    33   ar
    31    33    34   ar
    32    25    28    1
    33     6     7   ar
    34     7     8    1
    35    12    13    1
    36    13    14    1
    37    14     9    1
    38     7     3   ar
    39    28    22    1
    40    27    25    1
    41    34    29   ar
    42    18    19    1
@<TRIPOS>MOLECULE
*****
 38 42 0 0 0
SMALL
GASTEIGER

@<TRIPOS>ATOM
      1 C          59.0826   90.3322    5.6727 C.3     1  UNL1        0.0666
      2 S          60.3872   90.9508    5.2659 S.3     1  UNL1       -0.0756
      3 C          61.2433   93.0360    2.1060 C.ar    1  UNL1        0.1432
      4 N          59.8346   93.4777    2.3720 N.ar    1  UNL1       -0.1328
      5 N          59.3425   92.7503    3.5880 N.ar    1  UNL1       -0.1224
      6 C          60.4470   91.8591    4.0737 C.ar    1  UNL1        0.1930
      7 N          61.6217   92.0356    3.1578 N.ar    1  UNL1       -0.2918
      8 C          62.9429   91.3348    3.2734 C.3     1  UNL1        0.1337
      9 C          63.8723   94.4617   -1.2563 C.3     1  UNL1        0.0716
     10 C          62.6762   93.6057   -1.5508 C.3     1  UNL1        0.0200
     11 C          61.7999   93.1304   -0.4300 C.3     1  UNL1        0.0092
     12 C          62.1196   93.5112    0.9852 C.3     1  UNL1        0.0589
     13 C          63.3156   94.3672    1.2796 C.3     1  UNL1        0.0092
     14 C          64.1920   94.8425    0.1588 C.3     1  UNL1        0.0200
     15 C          65.1629   96.5253   -4.3910 C.3     1  UNL1        0.0946
     16 C          64.2866   96.0501   -3.2701 C.2     1  UNL1        0.2229
     17 O          62.9483   96.6881   -3.0423 O.2     1  UNL1       -0.2751
     18 N          64.7486   94.9369   -2.3772 N.am    1  UNL1       -0.3060
     19 H          65.6270   94.5182   -2.5267 H       1  UNL1        0.1494
     20 C          59.0593   89.2354    6.6957 C.3     1  UNL1        0.0294
     21 C          59.7731   89.4136    8.0029 C.3     1  UNL1        0.0730
     22 N          60.3694   88.2266    8.6997 N.3     1  UNL1       -0.2726
     23 C          60.1550   86.7884    8.3313 C.3     1  UNL1        0.0721
     24 C          60.9379   85.9425    9.2912 C.3     1  UNL1        0.0190
     25 C          61.6362   86.8578   10.2528 C.3     1  UNL1        0.0201
     26 C          62.3022   85.7730   11.0463 C.3     1  UNL1        0.0061
     27 C          62.5166   87.2112   11.4147 C.3     1  UNL1        0.0237
     28 C          61.2848   88.2695    9.8872 C.3     1  UNL1        0.0724
     29 C          63.1487   88.2455   12.2981 C.ar    1  UNL1       -0.0225
     30 C          63.1302   89.6899   11.8937 C.ar    1  UNL1       -0.0043
     31 C          63.7623   90.7242   12.7771 C.ar    1  UNL1        0.0035
     32 C          64.4129   90.3143   14.0650 C.ar    1  UNL1        0.0714
     33 C          64.4313   88.8699   14.4695 C.ar    1  UNL1        0.0035
     34 C          63.7992   87.8356   13.5860 C.ar    1  UNL1       -0.0043
     35 C          65.0450   91.3486   14.9485 C.3     1  UNL1        0.4186
     36 F          65.6771   92.3830   15.8320 F       1  UNL1       -0.1659
     37 F          65.9967   91.7084   13.8463 F       1  UNL1       -0.1659
     38 F          64.0932   90.9889   16.0506 F       1  UNL1       -0.1659
@<TRIPOS>BOND
     1    15    16    1
     2    16    17    2
     3    16    18   am
     4    18     9    1
     5     9    10    1
     6    10    11    1
     7    11    12    1
     8    12     3    1
     9     3     4   ar
    10     4     5   ar
    11     5     6   ar
    12     6     2    1
    13     2     1    1
    14     1    20    1
    15    20    21    1
    16    21    22    1
    17    22    23    1
    18    23    24    1
    19    25    24    1
    20    25    26    1
    21    26    27    1
    22    27    29    1
    23    29    30   ar
    24    30    31   ar
    25    31    32   ar
    26    32    35    1
    27    35    36    1
    28    35    37    1
    29    35    38    1
    30    32    33   ar
    31    33    34   ar
    32    25    28    1
    33     6     7   ar
    34     7     8    1
    35    12    13    1
    36    13    14    1
    37    14     9    1
    38     7     3   ar
    39    28    22    1
    40    27    25    1
    41    34    29   ar
    42    18    19    1
@<TRIPOS>MOLECULE
*****
 38 42 0 0 0
SMALL
GASTEIGER

@<TRIPOS>ATOM
      1 C          59.0792   91.7137    5.4130 C.3     1  UNL1        0.0666
      2 S          59.0456   92.1761    3.9864 S.3     1  UNL1       -0.0756
      3 C          61.9126   92.8879    1.4686 C.ar    1  UNL1        0.1432
      4 N          62.6758   92.2996    2.6183 N.ar    1  UNL1       -0.1328
      5 N          61.6947   91.9614    3.7014 N.ar    1  UNL1       -0.1224
      6 C          60.3251   92.3406    3.2211 C.ar    1  UNL1        0.1930
      7 N          60.4598   92.9132    1.8413 N.ar    1  UNL1       -0.2918
      8 C          59.3385   93.4217    0.9844 C.3     1  UNL1        0.1337
      9 C          63.6725   94.3244   -2.4158 C.3     1  UNL1        0.0716
     10 C          62.3822   93.5595   -2.4145 C.3     1  UNL1        0.0200
     11 C          61.7955   93.0806   -1.1196 C.3     1  UNL1        0.0092
     12 C          62.4992   93.3667    0.1738 C.3     1  UNL1        0.0589
     13 C          63.7895   94.1316    0.1725 C.3     1  UNL1        0.0092
     14 C          64.3762   94.6105   -1.1224 C.3     1  UNL1        0.0200
     15 C          65.3768   94.2924   -5.9997 C.3     1  UNL1        0.0946
     16 C          64.7902   93.8136   -4.7049 C.2     1  UNL1        0.2229
     17 O          64.7346   92.3451   -4.4044 O.2     1  UNL1       -0.2751
     18 N          64.2592   94.8032   -3.7106 N.am    1  UNL1       -0.3060
     19 H          64.2957   95.7671   -3.9079 H       1  UNL1        0.1494
     20 C          59.3069   90.2646    5.7265 C.3     1  UNL1        0.0294
     21 C          58.6647   89.6485    6.9340 C.3     1  UNL1        0.0730
     22 N          59.3467   88.5233    7.6544 N.3     1  UNL1       -0.2726
     23 C          59.0754   87.0606    7.4625 C.3     1  UNL1        0.0721
     24 C          59.9808   86.2967    8.3827 C.3     1  UNL1        0.0190
     25 C          60.8116   87.2873    9.1433 C.3     1  UNL1        0.0201
     26 C          61.5767   86.2720    9.9392 C.3     1  UNL1        0.0061
     27 C          61.8480   87.7347   10.1311 C.3     1  UNL1        0.0237
     28 C          60.4197   88.6635    8.6931 C.3     1  UNL1        0.0724
     29 C          62.6030   88.8375   10.8121 C.ar    1  UNL1       -0.0225
     30 C          63.0747   88.6620   12.2252 C.ar    1  UNL1       -0.0043
     31 C          63.8296   89.7648   12.9063 C.ar    1  UNL1        0.0035
     32 C          64.1129   91.0431   12.1743 C.ar    1  UNL1        0.0714
     33 C          63.6412   91.2185   10.7612 C.ar    1  UNL1        0.0035
     34 C          62.8862   90.1157   10.0801 C.ar    1  UNL1       -0.0043
     35 C          64.8678   92.1459   12.8553 C.3     1  UNL1        0.4186
     36 F          65.6228   93.2487   13.5364 F       1  UNL1       -0.1659
     37 F          64.6624   91.4695   14.1783 F       1  UNL1       -0.1659
     38 F          65.0733   92.8222   11.5324 F       1  UNL1       -0.1659
@<TRIPOS>BOND
     1    15    16    1
     2    16    17    2
     3    16    18   am
     4    18     9    1
     5     9    10    1
     6    10    11    1
     7    11    12    1
     8    12     3    1
     9     3     4   ar
    10     4     5   ar
    11     5     6   ar
    12     6     2    1
    13     2     1    1
    14     1    20    1
    15    20    21    1
    16    21    22    1
    17    22    23    1
    18    23    24    1
    19    25    24    1
    20    25    26    1
    21    26    27    1
    22    27    29    1
    23    29    30   ar
    24    30    31   ar
    25    31    32   ar
    26    32    35    1
    27    35    36    1
    28    35    37    1
    29    35    38    1
    30    32    33   ar
    31    33    34   ar
    32    25    28    1
    33     6     7   ar
    34     7     8    1
    35    12    13    1
    36    13    14    1
    37    14     9    1
    38     7     3   ar
    39    28    22    1
    40    27    25    1
    41    34    29   ar
    42    18    19    1
@<TRIPOS>MOLECULE
*****
 38 42 0 0 0
SMALL
GASTEIGER

@<TRIPOS>ATOM
      1 C          63.0905   89.9181   16.2165 C.3     1  UNL1        0.0666
      2 S          63.3599   88.7183   17.0755 S.3     1  UNL1       -0.0756
      3 C          62.8085   85.3556   15.2169 C.ar    1  UNL1        0.1432
      4 N          62.0133   85.1289   16.4684 N.ar    1  UNL1       -0.1328
      5 N          62.1230   86.3610   17.3169 N.ar    1  UNL1       -0.1224
      6 C          62.9861   87.3492   16.5899 C.ar    1  UNL1        0.1930
      7 N          63.4098   86.7279   15.2920 N.ar    1  UNL1       -0.2918
      8 C          64.2816   87.3666   14.2518 C.3     1  UNL1        0.1337
      9 C          63.3035   82.4326   11.8316 C.3     1  UNL1        0.0716
     10 C          63.7280   82.0521   13.2191 C.3     1  UNL1        0.0200
     11 C          63.5629   83.0265   14.3475 C.3     1  UNL1        0.0092
     12 C          62.9735   84.3812   14.0884 C.3     1  UNL1        0.0589
     13 C          62.5491   84.7617   12.7010 C.3     1  UNL1        0.0092
     14 C          62.7140   83.7874   11.5725 C.3     1  UNL1        0.0200
     15 C          63.1748   79.0648    9.7359 C.3     1  UNL1        0.0946
     16 C          63.0098   80.0392   10.8644 C.2     1  UNL1        0.2229
     17 O          62.3860   79.5945   12.1540 O.2     1  UNL1       -0.2751
     18 N          63.4685   81.4582   10.7031 N.am    1  UNL1       -0.3060
     19 H          63.8779   81.7500    9.8567 H       1  UNL1        0.1494
     20 C          63.6606   91.2534   16.5932 C.3     1  UNL1        0.0294
     21 C          65.0565   91.6163   16.1812 C.3     1  UNL1        0.0730
     22 N          65.3230   92.1131   14.7912 N.3     1  UNL1       -0.2726
     23 C          66.3095   93.1765   14.4090 C.3     1  UNL1        0.0721
     24 C          66.2459   93.3543   12.9209 C.3     1  UNL1        0.0190
     25 C          65.2202   92.4008   12.3835 C.3     1  UNL1        0.0201
     26 C          65.3780   92.7952   10.9449 C.3     1  UNL1        0.0061
     27 C          64.3916   91.7318   11.3271 C.3     1  UNL1        0.0237
     28 C          64.6498   91.6337   13.5394 C.3     1  UNL1        0.0724
     29 C          63.3437   90.7316   10.9380 C.ar    1  UNL1       -0.0225
     30 C          63.1713   89.4756   11.7396 C.ar    1  UNL1       -0.0043
     31 C          62.1234   88.4754   11.3504 C.ar    1  UNL1        0.0035
     32 C          61.2479   88.7313   10.1596 C.ar    1  UNL1        0.0714
     33 C          61.4203   89.9873    9.3580 C.ar    1  UNL1        0.0035
     34 C          62.4682   90.9875    9.7472 C.ar    1  UNL1       -0.0043
     35 C          60.2000   87.7311    9.7705 C.3     1  UNL1        0.4186
     36 F          59.1520   86.7308    9.3813 F       1  UNL1       -0.1659
     37 F          60.7314   86.7749   10.7968 F       1  UNL1       -0.1659
     38 F          59.6685   88.6872    8.7442 F       1  UNL1       -0.1659
@<TRIPOS>BOND
     1    15    16    1
     2    16    17    2
     3    16    18   am
     4    18     9    1
     5     9    10    1
     6    10    11    1
     7    11    12    1
     8    12     3    1
     9     3     4   ar
    10     4     5   ar
    11     5     6   ar
    12     6     2    1
    13     2     1    1
    14     1    20    1
    15    20    21    1
    16    21    22    1
    17    22    23    1
    18    23    24    1
    19    25    24    1
    20    25    26    1
    21    26    27    1
    22    27    29    1
    23    29    30   ar
    24    30    31   ar
    25    31    32   ar
    26    32    35    1
    27    35    36    1
    28    35    37    1
    29    35    38    1
    30    32    33   ar
    31    33    34   ar
    32    25    28    1
    33     6     7   ar
    34     7     8    1
    35    12    13    1
    36    13    14    1
    37    14     9    1
    38     7     3   ar
    39    28    22    1
    40    27    25    1
    41    34    29   ar
    42    18    19    1
