@<TRIPOS>MOLECULE
*****
 50 56 0 0 0
SMALL
GASTEIGER

@<TRIPOS>ATOM
      1 C          59.9202   89.7913    7.0149 C.ar    1  UNL1        0.0481
      2 C          59.6789   88.3112    6.9875 C.ar    1  UNL1        0.0176
      3 C          59.7296   87.5193    8.2605 C.ar    1  UNL1        0.0382
      4 C          60.0216   88.2076    9.5608 C.ar    1  UNL1        0.1388
      5 C          60.2630   89.6879    9.5882 C.ar    1  UNL1        0.0382
      6 C          60.2123   90.4797    8.3152 C.ar    1  UNL1        0.0176
      7 N          59.7680   92.1668    3.1960 N.pl3   1  UNL1       -0.3023
      8 C          61.0635   91.5654    3.6540 C.3     1  UNL1        0.1123
      9 C          61.1143   90.7735    4.9270 C.3     1  UNL1        0.1122
     10 N          59.8695   90.5832    5.7419 N.pl3   1  UNL1       -0.3041
     11 C          58.5739   91.1846    5.2839 C.3     1  UNL1        0.1122
     12 C          58.5231   91.9764    4.0110 C.3     1  UNL1        0.1123
     13 C          59.6156   94.5422   -0.6229 C.ar    1  UNL1        0.0721
     14 C          59.4633   93.0505   -0.6610 C.ar    1  UNL1        0.0191
     15 C          59.5140   92.2587    0.6120 C.ar    1  UNL1        0.0183
     16 C          59.7172   92.9587    1.9230 C.ar    1  UNL1        0.0759
     17 C          59.8695   94.4504    1.9611 C.ar    1  UNL1        0.1548
     18 F          60.0726   95.1504    3.2721 F       1  UNL1       -0.2028
     19 C          59.8187   95.2422    0.6881 C.ar    1  UNL1        0.0486
     20 N          58.8138   96.2600   -4.0099 N.ar    1  UNL1       -0.2024
     21 N          60.1597   96.8452   -3.6996 N.ar    1  UNL1       -0.1442
     22 C          60.6238   96.2729   -2.3931 C.ar    1  UNL1        0.2073
     23 N          59.5648   95.3341   -1.8959 N.ar    1  UNL1       -0.2397
     24 C          58.4462   95.3261   -2.8952 C.ar    1  UNL1        0.3522
     25 O          57.1819   94.5249   -2.7970 O.2     1  UNL1       -0.2444
     26 C          57.9817   96.5567   -5.2222 C.3     1  UNL1        0.1099
     27 C          58.6126   96.5579   -6.5830 C.3     1  UNL1        0.0265
     28 C          55.5095   96.0466   -5.8369 C.3     1  UNL1        0.0021
     29 C          56.5186   96.8521   -5.0737 C.3     1  UNL1        0.0245
     30 O          60.0724   87.4158   10.8338 O.3     1  UNL1       -0.4727
     31 C          61.3959   87.0291   11.4242 C.3     1  UNL1        0.2374
     32 C          62.2727   88.0740   12.0484 C.3     1  UNL1        0.1909
     33 C          62.2502   89.5421   11.7415 C.3     1  UNL1        0.1783
     34 O          63.2895   90.2096   12.5925 O.3     1  UNL1       -0.3266
     35 C          63.9543   89.1540   13.4255 C.3     1  UNL1        0.2315
     36 O          63.3259   87.8341   13.0892 O.3     1  UNL1       -0.3254
     37 C          64.7567   90.3034   13.9592 C.ar    1  UNL1        0.0410
     38 C          65.8230   90.9314   13.1115 C.ar    1  UNL1        0.0022
     39 C          66.6255   92.0809   13.6452 C.ar    1  UNL1        0.0113
     40 C          66.3617   92.6023   15.0266 C.ar    1  UNL1        0.0585
     41 CL         67.1642   93.7518   15.5603 Cl      1  UNL1       -0.0822
     42 C          65.2955   91.9744   15.8744 C.ar    1  UNL1        0.0226
     43 C          64.4930   90.8249   15.3407 C.ar    1  UNL1        0.0591
     44 CL         63.4267   90.1969   16.1885 Cl      1  UNL1       -0.0824
     45 C          64.7869   88.3387   14.3701 C.3     1  UNL1        0.1915
     46 N          64.2267   87.0843   14.9723 N.ar    1  UNL1       -0.2054
     47 C          64.5751   85.6817   14.5710 C.ar    1  UNL1        0.2216
     48 N          63.7834   84.7429   15.4322 N.ar    1  UNL1       -0.1048
     49 N          62.9456   85.5653   16.3658 N.ar    1  UNL1       -0.0226
     50 N          63.2196   87.0124   16.0816 N.ar    1  UNL1       -0.0427
@<TRIPOS>BOND
     1    28    29    1
     2    29    26    1
     3    26    27    1
     4    26    20    1
     5    20    21   ar
     6    21    22   ar
     7    22    23   ar
     8    23    13    1
     9    13    14   ar
    10    14    15   ar
    11    15    16   ar
    12    16     7    1
    13     7     8    1
    14     8     9    1
    15     9    10    1
    16    10     1    1
    17     1     2   ar
    18     2     3   ar
    19     3     4   ar
    20     4    30    1
    21    30    31    1
    22    32    31    1
    23    32    33    1
    24    33    34    1
    25    34    35    1
    26    35    45    1
    27    45    46    1
    28    46    47   ar
    29    47    48   ar
    30    48    49   ar
    31    49    50   ar
    32    35    37    1
    33    37    38   ar
    34    38    39   ar
    35    39    40   ar
    36    40    41    1
    37    40    42   ar
    38    42    43   ar
    39    43    44    1
    40    35    36    1
    41     4     5   ar
    42     5     6   ar
    43    10    11    1
    44    11    12    1
    45    16    17   ar
    46    17    18    1
    47    17    19   ar
    48    23    24   ar
    49    24    25    2
    50    24    20   ar
    51    19    13   ar
    52    12     7    1
    53     6     1   ar
    54    36    32    1
    55    50    46   ar
    56    43    37   ar
@<TRIPOS>MOLECULE
*****
 50 56 0 0 0
SMALL
GASTEIGER

@<TRIPOS>ATOM
      1 C          59.7966   89.8659    6.8380 C.ar    1  UNL1        0.0481
      2 C          60.2122   90.5378    8.1131 C.ar    1  UNL1        0.0176
      3 C          60.2585   89.7557    9.3923 C.ar    1  UNL1        0.0382
      4 C          59.8894   88.3019    9.3963 C.ar    1  UNL1        0.1388
      5 C          59.4739   87.6300    8.1211 C.ar    1  UNL1        0.0382
      6 C          59.4275   88.4121    6.8420 C.ar    1  UNL1        0.0176
      7 N          59.6575   92.2121    3.0005 N.pl3   1  UNL1       -0.3023
      8 C          60.9560   91.6336    3.4792 C.3     1  UNL1        0.1123
      9 C          61.0024   90.8515    4.7584 C.3     1  UNL1        0.1122
     10 N          59.7503   90.6480    5.5588 N.pl3   1  UNL1       -0.3041
     11 C          58.4517   91.2265    5.0801 C.3     1  UNL1        0.1122
     12 C          58.4053   92.0085    3.8010 C.3     1  UNL1        0.1123
     13 C          59.5182   94.5582   -0.8370 C.ar    1  UNL1        0.0721
     14 C          59.1334   93.1084   -0.8299 C.ar    1  UNL1        0.0191
     15 C          59.1798   92.3264    0.4492 C.ar    1  UNL1        0.0183
     16 C          59.6111   92.9942    1.7213 C.ar    1  UNL1        0.0759
     17 C          59.9959   94.4439    1.7142 C.ar    1  UNL1        0.1548
     18 F          60.4271   95.1117    2.9863 F       1  UNL1       -0.2028
     19 C          59.9494   95.2259    0.4351 C.ar    1  UNL1        0.0486
     20 N          60.0492   96.2338   -4.2976 N.ar    1  UNL1       -0.2024
     21 N          58.7514   96.8538   -3.8715 N.ar    1  UNL1       -0.1442
     22 C          58.3946   96.3015   -2.5233 C.ar    1  UNL1        0.2073
     23 N          59.4718   95.3403   -2.1162 N.ar    1  UNL1       -0.2397
     24 C          60.4943   95.2984   -3.2128 C.ar    1  UNL1        0.3522
     25 O          61.7429   94.4671   -3.2229 O.2     1  UNL1       -0.2444
     26 C          60.7744   96.5021   -5.5830 C.3     1  UNL1        0.1099
     27 C          62.2634   96.6826   -5.5804 C.3     1  UNL1        0.0265
     28 C          58.8666   95.6548   -7.1298 C.3     1  UNL1        0.0021
     29 C          60.0105   96.5899   -6.8709 C.3     1  UNL1        0.0245
     30 O          59.9358   87.5198   10.6754 O.3     1  UNL1       -0.4727
     31 C          61.2561   87.1021   11.2516 C.3     1  UNL1        0.2374
     32 C          62.1230   88.1090   11.9479 C.3     1  UNL1        0.1909
     33 C          62.0542   89.5980   11.7796 C.3     1  UNL1        0.1783
     34 O          63.0994   90.2130   12.6623 O.3     1  UNL1       -0.3266
     35 C          63.8142   89.1041   13.3762 C.3     1  UNL1        0.2315
     36 O          63.2107   87.8038   12.9346 O.3     1  UNL1       -0.3254
     37 C          64.6015   90.2214   13.9939 C.ar    1  UNL1        0.0410
     38 C          65.7451   90.8373   13.2436 C.ar    1  UNL1        0.0022
     39 C          66.5325   91.9547   13.8614 C.ar    1  UNL1        0.0113
     40 C          66.1762   92.4562   15.2294 C.ar    1  UNL1        0.0585
     41 CL         66.9635   93.5735   15.8472 Cl      1  UNL1       -0.0822
     42 C          65.0327   91.8403   15.9798 C.ar    1  UNL1        0.0226
     43 C          64.2453   90.7229   15.3620 C.ar    1  UNL1        0.0591
     44 CL         63.1017   90.1071   16.1123 Cl      1  UNL1       -0.0824
     45 C          64.6936   88.2288   14.2191 C.3     1  UNL1        0.1915
     46 N          64.1455   86.9655   14.8138 N.ar    1  UNL1       -0.2054
     47 C          64.4307   85.5715   14.3392 C.ar    1  UNL1        0.2216
     48 N          63.6775   84.6189   15.2195 N.ar    1  UNL1       -0.1048
     49 N          62.9267   85.4241   16.2382 N.ar    1  UNL1       -0.0226
     50 N          63.2160   86.8745   15.9875 N.ar    1  UNL1       -0.0427
@<TRIPOS>BOND
     1    28    29    1
     2    29    26    1
     3    26    27    1
     4    26    20    1
     5    20    21   ar
     6    21    22   ar
     7    22    23   ar
     8    23    13    1
     9    13    14   ar
    10    14    15   ar
    11    15    16   ar
    12    16     7    1
    13     7     8    1
    14     8     9    1
    15     9    10    1
    16    10     1    1
    17     1     2   ar
    18     2     3   ar
    19     3     4   ar
    20     4    30    1
    21    30    31    1
    22    32    31    1
    23    32    33    1
    24    33    34    1
    25    34    35    1
    26    35    45    1
    27    45    46    1
    28    46    47   ar
    29    47    48   ar
    30    48    49   ar
    31    49    50   ar
    32    35    37    1
    33    37    38   ar
    34    38    39   ar
    35    39    40   ar
    36    40    41    1
    37    40    42   ar
    38    42    43   ar
    39    43    44    1
    40    35    36    1
    41     4     5   ar
    42     5     6   ar
    43    10    11    1
    44    11    12    1
    45    16    17   ar
    46    17    18    1
    47    17    19   ar
    48    23    24   ar
    49    24    25    2
    50    24    20   ar
    51    19    13   ar
    52    12     7    1
    53     6     1   ar
    54    36    32    1
    55    50    46   ar
    56    43    37   ar
@<TRIPOS>MOLECULE
*****
 50 56 0 0 0
SMALL
GASTEIGER

@<TRIPOS>ATOM
      1 C          60.0186   89.9437    6.7515 C.ar    1  UNL1        0.0481
      2 C          59.4176   88.5701    6.7955 C.ar    1  UNL1        0.0176
      3 C          59.4103   87.7954    8.0800 C.ar    1  UNL1        0.0382
      4 C          60.0040   88.3945    9.3205 C.ar    1  UNL1        0.1388
      5 C          60.6050   89.7681    9.2764 C.ar    1  UNL1        0.0382
      6 C          60.6123   90.5427    7.9919 C.ar    1  UNL1        0.0176
      7 N          60.0405   92.2675    2.8980 N.pl3   1  UNL1       -0.3023
      8 C          58.7646   92.1079    3.6703 C.3     1  UNL1        0.1123
      9 C          58.7572   91.3333    4.9548 C.3     1  UNL1        0.1122
     10 N          60.0259   90.7183    5.4670 N.pl3   1  UNL1       -0.3041
     11 C          61.3019   90.8779    4.6946 C.3     1  UNL1        0.1122
     12 C          61.3091   91.6525    3.4102 C.3     1  UNL1        0.1123
     13 C          60.0625   94.5913   -0.9555 C.ar    1  UNL1        0.0721
     14 C          59.7427   95.2838    0.3361 C.ar    1  UNL1        0.0191
     15 C          59.7354   94.5092    1.6205 C.ar    1  UNL1        0.0183
     16 C          60.0479   93.0421    1.6134 C.ar    1  UNL1        0.0759
     17 C          60.3676   92.3496    0.3219 C.ar    1  UNL1        0.1548
     18 F          60.6801   90.8826    0.3148 F       1  UNL1       -0.2028
     19 C          60.3750   93.1243   -0.9626 C.ar    1  UNL1        0.0486
     20 N          60.7472   96.2610   -4.3919 N.ar    1  UNL1       -0.2024
     21 N          59.4150   96.8549   -4.0414 N.ar    1  UNL1       -0.1442
     22 C          58.9965   96.3017   -2.7115 C.ar    1  UNL1        0.2073
     23 N          60.0699   95.3660   -2.2400 N.ar    1  UNL1       -0.2397
     24 C          61.1518   95.3408   -3.2786 C.ar    1  UNL1        0.3522
     25 O          62.4165   94.5367   -3.2151 O.2     1  UNL1       -0.2444
     26 C          61.5361   96.5386   -5.6371 C.3     1  UNL1        0.1099
     27 C          60.8613   96.5020   -6.9763 C.3     1  UNL1        0.0265
     28 C          63.8664   96.7611   -6.7640 C.3     1  UNL1        0.0021
     29 C          62.9998   96.8529   -5.5432 C.3     1  UNL1        0.0245
     30 O          59.9967   87.6199   10.6049 O.3     1  UNL1       -0.4727
     31 C          61.2904   87.1740   11.2192 C.3     1  UNL1        0.2374
     32 C          62.1457   88.1568   11.9627 C.3     1  UNL1        0.1909
     33 C          62.1043   89.6491   11.8166 C.3     1  UNL1        0.1783
     34 O          63.1255   90.2344   12.7463 O.3     1  UNL1       -0.3266
     35 C          63.7981   89.1038   13.4671 C.3     1  UNL1        0.2315
     36 O          63.1925   87.8198   12.9828 O.3     1  UNL1       -0.3254
     37 C          64.5783   90.1994   14.1311 C.ar    1  UNL1        0.0410
     38 C          65.7732   90.7914   13.4444 C.ar    1  UNL1        0.0022
     39 C          66.5536   91.8871   14.1084 C.ar    1  UNL1        0.0113
     40 C          66.1389   92.3906   15.4590 C.ar    1  UNL1        0.0585
     41 CL         66.9191   93.4862   16.1231 Cl      1  UNL1       -0.0822
     42 C          64.9440   91.7986   16.1459 C.ar    1  UNL1        0.0226
     43 C          64.1637   90.7029   15.4819 C.ar    1  UNL1        0.0591
     44 CL         62.9688   90.1109   16.1686 Cl      1  UNL1       -0.0824
     45 C          64.6338   88.2023   14.3267 C.3     1  UNL1        0.1915
     46 N          64.0395   86.9501   14.9000 N.ar    1  UNL1       -0.2054
     47 C          64.1911   85.5663   14.3416 C.ar    1  UNL1        0.2216
     48 N          63.4346   84.6228   15.2288 N.ar    1  UNL1       -0.1048
     49 N          62.8152   85.4235   16.3357 N.ar    1  UNL1       -0.0226
     50 N          63.1891   86.8619   16.1325 N.ar    1  UNL1       -0.0427
@<TRIPOS>BOND
     1    28    29    1
     2    29    26    1
     3    26    27    1
     4    26    20    1
     5    20    21   ar
     6    21    22   ar
     7    22    23   ar
     8    23    13    1
     9    13    14   ar
    10    14    15   ar
    11    15    16   ar
    12    16     7    1
    13     7     8    1
    14     8     9    1
    15     9    10    1
    16    10     1    1
    17     1     2   ar
    18     2     3   ar
    19     3     4   ar
    20     4    30    1
    21    30    31    1
    22    32    31    1
    23    32    33    1
    24    33    34    1
    25    34    35    1
    26    35    45    1
    27    45    46    1
    28    46    47   ar
    29    47    48   ar
    30    48    49   ar
    31    49    50   ar
    32    35    37    1
    33    37    38   ar
    34    38    39   ar
    35    39    40   ar
    36    40    41    1
    37    40    42   ar
    38    42    43   ar
    39    43    44    1
    40    35    36    1
    41     4     5   ar
    42     5     6   ar
    43    10    11    1
    44    11    12    1
    45    16    17   ar
    46    17    18    1
    47    17    19   ar
    48    23    24   ar
    49    24    25    2
    50    24    20   ar
    51    19    13   ar
    52    12     7    1
    53     6     1   ar
    54    36    32    1
    55    50    46   ar
    56    43    37   ar
@<TRIPOS>MOLECULE
*****
 50 56 0 0 0
SMALL
GASTEIGER

@<TRIPOS>ATOM
      1 C          60.3948   90.2928    6.3603 C.ar    1  UNL1        0.0481
      2 C          61.2016   90.6409    7.5759 C.ar    1  UNL1        0.0176
      3 C          60.9520   89.9271    8.8714 C.ar    1  UNL1        0.0382
      4 C          59.8956   88.8653    8.9513 C.ar    1  UNL1        0.1388
      5 C          59.0887   88.5172    7.7355 C.ar    1  UNL1        0.0382
      6 C          59.3383   89.2310    6.4401 C.ar    1  UNL1        0.0176
      7 N          61.1436   92.4341    2.4739 N.pl3   1  UNL1       -0.3023
      8 C          59.8254   92.5877    3.1729 C.3     1  UNL1        0.1123
      9 C          59.5757   91.8739    4.4684 C.3     1  UNL1        0.1122
     10 N          60.6444   91.0066    5.0649 N.pl3   1  UNL1       -0.3041
     11 C          61.9627   90.8531    4.3658 C.3     1  UNL1        0.1122
     12 C          62.2123   91.5668    3.0704 C.3     1  UNL1        0.1123
     13 C          61.8926   94.5755   -1.4124 C.ar    1  UNL1        0.0721
     14 C          62.8121   94.7923   -0.2473 C.ar    1  UNL1        0.0191
     15 C          62.5624   94.0786    1.0481 C.ar    1  UNL1        0.0183
     16 C          61.3933   93.1479    1.1784 C.ar    1  UNL1        0.0759
     17 C          60.4738   92.9311    0.0133 C.ar    1  UNL1        0.1548
     18 F          59.3046   92.0004    0.1437 F       1  UNL1       -0.2028
     19 C          60.7235   93.6448   -1.2821 C.ar    1  UNL1        0.0486
     20 N          63.0947   95.9210   -4.8490 N.ar    1  UNL1       -0.2024
     21 N          61.9581   96.8543   -4.5538 N.ar    1  UNL1       -0.1442
     22 C          61.3695   96.4639   -3.2305 C.ar    1  UNL1        0.2073
     23 N          62.1423   95.2893   -2.7079 N.ar    1  UNL1       -0.2397
     24 C          63.2085   94.9537   -3.7082 C.ar    1  UNL1        0.3522
     25 O          64.2123   93.8456   -3.5887 O.2     1  UNL1       -0.2444
     26 C          63.9647   95.9499   -6.0706 C.3     1  UNL1        0.1099
     27 C          65.1928   96.8108   -6.0966 C.3     1  UNL1        0.0265
     28 C          63.1242   93.7095   -7.0828 C.3     1  UNL1        0.0021
     29 C          63.6067   95.1178   -7.2662 C.3     1  UNL1        0.0245
     30 O          59.6460   88.1515   10.2467 O.3     1  UNL1       -0.4727
     31 C          60.7939   87.5620   11.0114 C.3     1  UNL1        0.2374
     32 C          61.7068   88.4538   11.7997 C.3     1  UNL1        0.1909
     33 C          61.5766   89.9410   11.9458 C.3     1  UNL1        0.1783
     34 O          62.6995   90.4213   12.8166 O.3     1  UNL1       -0.3266
     35 C          63.5238   89.2309   13.2087 C.3     1  UNL1        0.2315
     36 O          62.9102   88.0150   12.5802 O.3     1  UNL1       -0.3254
     37 C          64.3455   90.2423   13.9516 C.ar    1  UNL1        0.0410
     38 C          65.5574   90.8449   13.3050 C.ar    1  UNL1        0.0022
     39 C          66.3791   91.8563   14.0480 C.ar    1  UNL1        0.0113
     40 C          65.9890   92.2650   15.4374 C.ar    1  UNL1        0.0585
     41 CL         66.8107   93.2763   16.1803 Cl      1  UNL1       -0.0822
     42 C          64.7771   91.6624   16.0841 C.ar    1  UNL1        0.0226
     43 C          63.9553   90.6510   15.3412 C.ar    1  UNL1        0.0591
     44 CL         62.7434   90.0483   15.9878 Cl      1  UNL1       -0.0824
     45 C          64.5198   88.2521   13.7561 C.3     1  UNL1        0.1915
     46 N          64.0549   87.0989   14.5952 N.ar    1  UNL1       -0.2054
     47 C          64.2139   85.6452   14.2618 C.ar    1  UNL1        0.2216
     48 N          63.6066   84.8450   15.3756 N.ar    1  UNL1       -0.1048
     49 N          63.0721   85.8041   16.3975 N.ar    1  UNL1       -0.0226
     50 N          63.3492   87.1972   15.9152 N.ar    1  UNL1       -0.0427
@<TRIPOS>BOND
     1    28    29    1
     2    29    26    1
     3    26    27    1
     4    26    20    1
     5    20    21   ar
     6    21    22   ar
     7    22    23   ar
     8    23    13    1
     9    13    14   ar
    10    14    15   ar
    11    15    16   ar
    12    16     7    1
    13     7     8    1
    14     8     9    1
    15     9    10    1
    16    10     1    1
    17     1     2   ar
    18     2     3   ar
    19     3     4   ar
    20     4    30    1
    21    30    31    1
    22    32    31    1
    23    32    33    1
    24    33    34    1
    25    34    35    1
    26    35    45    1
    27    45    46    1
    28    46    47   ar
    29    47    48   ar
    30    48    49   ar
    31    49    50   ar
    32    35    37    1
    33    37    38   ar
    34    38    39   ar
    35    39    40   ar
    36    40    41    1
    37    40    42   ar
    38    42    43   ar
    39    43    44    1
    40    35    36    1
    41     4     5   ar
    42     5     6   ar
    43    10    11    1
    44    11    12    1
    45    16    17   ar
    46    17    18    1
    47    17    19   ar
    48    23    24   ar
    49    24    25    2
    50    24    20   ar
    51    19    13   ar
    52    12     7    1
    53     6     1   ar
    54    36    32    1
    55    50    46   ar
    56    43    37   ar
@<TRIPOS>MOLECULE
*****
 50 56 0 0 0
SMALL
GASTEIGER

@<TRIPOS>ATOM
      1 C          60.3848   90.4319    6.7154 C.ar    1  UNL1        0.0481
      2 C          61.3833   90.9516    7.7068 C.ar    1  UNL1        0.0176
      3 C          61.5047   90.3085    9.0565 C.ar    1  UNL1        0.0382
      4 C          60.6276   89.1455    9.4148 C.ar    1  UNL1        0.1388
      5 C          59.6291   88.6258    8.4233 C.ar    1  UNL1        0.0382
      6 C          59.5077   89.2690    7.0737 C.ar    1  UNL1        0.0176
      7 N          60.0208   92.3614    2.6664 N.pl3   1  UNL1       -0.3023
      8 C          58.8048   92.1907    3.5279 C.3     1  UNL1        0.1123
      9 C          58.9261   91.5475    4.8776 C.3     1  UNL1        0.1122
     10 N          60.2635   91.0750    5.3658 N.pl3   1  UNL1       -0.3041
     11 C          61.4795   91.2457    4.5042 C.3     1  UNL1        0.1122
     12 C          61.3581   91.8889    3.1546 C.3     1  UNL1        0.1123
     13 C          59.6568   94.2908   -1.3826 C.ar    1  UNL1        0.0721
     14 C          59.6575   92.7957   -1.2616 C.ar    1  UNL1        0.0191
     15 C          59.7788   92.1526    0.0880 C.ar    1  UNL1        0.0183
     16 C          59.8995   93.0046    1.3167 C.ar    1  UNL1        0.0759
     17 C          59.8988   94.4996    1.1957 C.ar    1  UNL1        0.1548
     18 F          60.0195   95.3516    2.4243 F       1  UNL1       -0.2028
     19 C          59.7775   95.1427   -0.1540 C.ar    1  UNL1        0.0486
     20 N          59.9754   95.5763   -5.0312 N.ar    1  UNL1       -0.2024
     21 N          58.7222   96.2712   -4.5874 N.ar    1  UNL1       -0.1442
     22 C          58.4504   95.8741   -3.1667 C.ar    1  UNL1        0.2073
     23 N          59.5355   94.9340   -2.7324 N.ar    1  UNL1       -0.2397
     24 C          60.4780   94.7499   -3.8847 C.ar    1  UNL1        0.3522
     25 O          61.7073   93.8903   -3.8897 O.2     1  UNL1       -0.2444
     26 C          60.6138   95.6882   -6.3839 C.3     1  UNL1        0.1099
     27 C          61.5090   96.8503   -6.6969 C.3     1  UNL1        0.0265
     28 C          59.0532   93.8966   -7.4347 C.3     1  UNL1        0.0021
     29 C          60.3569   94.6381   -7.4237 C.3     1  UNL1        0.0245
     30 O          60.7489   88.5024   10.7644 O.3     1  UNL1       -0.4727
     31 C          62.0544   87.9015   11.1942 C.3     1  UNL1        0.2374
     32 C          62.1360   86.4395   11.5198 C.3     1  UNL1        0.1909
     33 C          61.5075   85.3253   10.7364 C.3     1  UNL1        0.1783
     34 O          61.8435   84.0322   11.4183 O.3     1  UNL1       -0.3266
     35 C          62.6798   84.3473   12.6231 C.3     1  UNL1        0.2315
     36 O          62.8605   85.8350   12.6858 O.3     1  UNL1       -0.3254
     37 C          62.6735   82.8604   12.8209 C.ar    1  UNL1        0.0410
     38 C          61.9059   82.2586   13.9605 C.ar    1  UNL1        0.0022
     39 C          61.8996   80.7717   14.1583 C.ar    1  UNL1        0.0113
     40 C          62.6610   79.8866   13.2166 C.ar    1  UNL1        0.0585
     41 CL         62.6547   78.3997   13.4144 Cl      1  UNL1       -0.0822
     42 C          63.4287   80.4883   12.0770 C.ar    1  UNL1        0.0226
     43 C          63.4349   81.9752   11.8792 C.ar    1  UNL1        0.0591
     44 CL         64.2026   82.5770   10.7396 Cl      1  UNL1       -0.0824
     45 C          63.5147   84.3514   13.8692 C.3     1  UNL1        0.1915
     46 N          63.0890   85.1661   15.0546 N.ar    1  UNL1       -0.2054
     47 C          63.8498   86.3096   15.6576 C.ar    1  UNL1        0.2216
     48 N          63.0588   86.8306   16.8206 N.ar    1  UNL1       -0.1048
     49 N          61.8091   86.0091   16.9365 N.ar    1  UNL1       -0.0226
     50 N          61.8278   84.9804   15.8450 N.ar    1  UNL1       -0.0427
@<TRIPOS>BOND
     1    28    29    1
     2    29    26    1
     3    26    27    1
     4    26    20    1
     5    20    21   ar
     6    21    22   ar
     7    22    23   ar
     8    23    13    1
     9    13    14   ar
    10    14    15   ar
    11    15    16   ar
    12    16     7    1
    13     7     8    1
    14     8     9    1
    15     9    10    1
    16    10     1    1
    17     1     2   ar
    18     2     3   ar
    19     3     4   ar
    20     4    30    1
    21    30    31    1
    22    32    31    1
    23    32    33    1
    24    33    34    1
    25    34    35    1
    26    35    45    1
    27    45    46    1
    28    46    47   ar
    29    47    48   ar
    30    48    49   ar
    31    49    50   ar
    32    35    37    1
    33    37    38   ar
    34    38    39   ar
    35    39    40   ar
    36    40    41    1
    37    40    42   ar
    38    42    43   ar
    39    43    44    1
    40    35    36    1
    41     4     5   ar
    42     5     6   ar
    43    10    11    1
    44    11    12    1
    45    16    17   ar
    46    17    18    1
    47    17    19   ar
    48    23    24   ar
    49    24    25    2
    50    24    20   ar
    51    19    13   ar
    52    12     7    1
    53     6     1   ar
    54    36    32    1
    55    50    46   ar
    56    43    37   ar
@<TRIPOS>MOLECULE
*****
 50 56 0 0 0
SMALL
GASTEIGER

@<TRIPOS>ATOM
      1 C          60.1501   90.2357    6.6844 C.ar    1  UNL1        0.0481
      2 C          59.3170   89.0090    6.9102 C.ar    1  UNL1        0.0176
      3 C          59.3782   88.2926    8.2267 C.ar    1  UNL1        0.0382
      4 C          60.2725   88.8030    9.3174 C.ar    1  UNL1        0.1388
      5 C          61.1057   90.0298    9.0916 C.ar    1  UNL1        0.0382
      6 C          61.0445   90.7461    7.7751 C.ar    1  UNL1        0.0176
      7 N          59.9666   92.3846    2.7350 N.pl3   1  UNL1       -0.3023
      8 C          58.7111   92.1556    3.5232 C.3     1  UNL1        0.1123
      9 C          58.7723   91.4393    4.8398 C.3     1  UNL1        0.1122
     10 N          60.0889   90.9520    5.3680 N.pl3   1  UNL1       -0.3041
     11 C          61.3444   91.1810    4.5796 C.3     1  UNL1        0.1122
     12 C          61.2832   91.8973    3.2632 C.3     1  UNL1        0.1123
     13 C          59.7831   94.5337   -1.2144 C.ar    1  UNL1        0.0721
     14 C          59.7052   95.3104    0.0664 C.ar    1  UNL1        0.0191
     15 C          59.7663   94.5941    1.3828 C.ar    1  UNL1        0.0183
     16 C          59.9054   93.1010    1.4184 C.ar    1  UNL1        0.0759
     17 C          59.9833   92.3242    0.1376 C.ar    1  UNL1        0.1548
     18 F          60.1224   90.8311    0.1733 F       1  UNL1       -0.2028
     19 C          59.9222   93.0405   -1.1788 C.ar    1  UNL1        0.0486
     20 N          59.1242   95.8547   -4.8042 N.ar    1  UNL1       -0.2024
     21 N          60.1315   96.8500   -4.3094 N.ar    1  UNL1       -0.1442
     22 C          60.5008   96.4763   -2.9045 C.ar    1  UNL1        0.2073
     23 N          59.7219   95.2500   -2.5310 N.ar    1  UNL1       -0.2397
     24 C          58.8712   94.8658   -3.7051 C.ar    1  UNL1        0.3522
     25 O          57.9322   93.6978   -3.7689 O.2     1  UNL1       -0.2444
     26 C          58.4828   95.8491   -6.1601 C.3     1  UNL1        0.1099
     27 C          59.3312   95.7236   -7.3907 C.3     1  UNL1        0.0265
     28 C          56.1930   96.5769   -5.1717 C.3     1  UNL1        0.0021
     29 C          56.9928   95.9691   -6.2855 C.3     1  UNL1        0.0245
     30 O          60.3337   88.0867   10.6339 O.3     1  UNL1       -0.4727
     31 C          60.2695   88.8647   11.9147 C.3     1  UNL1        0.2374
     32 C          61.4663   89.6384   12.3830 C.3     1  UNL1        0.1909
     33 C          62.2414   90.6373   11.5759 C.3     1  UNL1        0.1783
     34 O          63.3521   91.1654   12.4347 O.3     1  UNL1       -0.3266
     35 C          63.2634   90.4928   13.7726 C.3     1  UNL1        0.2315
     36 O          62.0979   89.5491   13.7406 O.3     1  UNL1       -0.3254
     37 C          64.4628   91.3326   14.0984 C.ar    1  UNL1        0.0410
     38 C          64.8378   91.5814   15.5293 C.ar    1  UNL1        0.0022
     39 C          66.0372   92.4212   15.8552 C.ar    1  UNL1        0.0113
     40 C          66.8615   93.0122   14.7503 C.ar    1  UNL1        0.0585
     41 CL         68.0609   93.8520   15.0761 Cl      1  UNL1       -0.0822
     42 C          66.4866   92.7635   13.3193 C.ar    1  UNL1        0.0226
     43 C          65.2872   91.9236   12.9934 C.ar    1  UNL1        0.0591
     44 CL         64.9122   91.6749   11.5625 Cl      1  UNL1       -0.0824
     45 C          63.4254   89.9958   15.1785 C.3     1  UNL1        0.1915
     46 N          63.5268   88.5235   15.4466 N.ar    1  UNL1       -0.2054
     47 C          63.0493   87.8170   16.6806 C.ar    1  UNL1        0.2216
     48 N          63.3508   86.3560   16.5244 N.ar    1  UNL1       -0.1048
     49 N          64.0147   86.1595   15.1937 N.ar    1  UNL1       -0.0226
     50 N          64.1234   87.4990   14.5276 N.ar    1  UNL1       -0.0427
@<TRIPOS>BOND
     1    28    29    1
     2    29    26    1
     3    26    27    1
     4    26    20    1
     5    20    21   ar
     6    21    22   ar
     7    22    23   ar
     8    23    13    1
     9    13    14   ar
    10    14    15   ar
    11    15    16   ar
    12    16     7    1
    13     7     8    1
    14     8     9    1
    15     9    10    1
    16    10     1    1
    17     1     2   ar
    18     2     3   ar
    19     3     4   ar
    20     4    30    1
    21    30    31    1
    22    32    31    1
    23    32    33    1
    24    33    34    1
    25    34    35    1
    26    35    45    1
    27    45    46    1
    28    46    47   ar
    29    47    48   ar
    30    48    49   ar
    31    49    50   ar
    32    35    37    1
    33    37    38   ar
    34    38    39   ar
    35    39    40   ar
    36    40    41    1
    37    40    42   ar
    38    42    43   ar
    39    43    44    1
    40    35    36    1
    41     4     5   ar
    42     5     6   ar
    43    10    11    1
    44    11    12    1
    45    16    17   ar
    46    17    18    1
    47    17    19   ar
    48    23    24   ar
    49    24    25    2
    50    24    20   ar
    51    19    13   ar
    52    12     7    1
    53     6     1   ar
    54    36    32    1
    55    50    46   ar
    56    43    37   ar
@<TRIPOS>MOLECULE
*****
 50 56 0 0 0
SMALL
GASTEIGER

@<TRIPOS>ATOM
      1 C          59.5054   93.2546    2.1544 C.ar    1  UNL1        0.0481
      2 C          60.0788   94.6400    2.1106 C.ar    1  UNL1        0.0176
      3 C          59.8367   95.5145    0.9161 C.ar    1  UNL1        0.0382
      4 C          59.0212   95.0035   -0.2345 C.ar    1  UNL1        0.1388
      5 C          58.4478   93.6181   -0.1907 C.ar    1  UNL1        0.0382
      6 C          58.6899   92.7437    1.0038 C.ar    1  UNL1        0.0176
      7 N          60.2319   90.6312    5.7377 N.pl3   1  UNL1       -0.3023
      8 C          58.8457   91.1155    5.4315 C.3     1  UNL1        0.1123
      9 C          58.6035   91.9900    4.2370 C.3     1  UNL1        0.1122
     10 N          59.7475   92.3802    3.3488 N.pl3   1  UNL1       -0.3041
     11 C          61.1338   91.8958    3.6551 C.3     1  UNL1        0.1122
     12 C          61.3759   91.0214    4.8495 C.3     1  UNL1        0.1123
     13 C          60.9585   88.0080    9.3210 C.ar    1  UNL1        0.0721
     14 C          61.5640   89.3789    9.2601 C.ar    1  UNL1        0.0191
     15 C          61.3217   90.2533    8.0657 C.ar    1  UNL1        0.0183
     16 C          60.4741   89.7568    6.9322 C.ar    1  UNL1        0.0759
     17 C          59.8686   88.3858    6.9931 C.ar    1  UNL1        0.1548
     18 F          59.0209   87.8892    5.8596 F       1  UNL1       -0.2028
     19 C          60.1108   87.5114    8.1875 C.ar    1  UNL1        0.0486
     20 N          62.0014   85.3355   11.9356 N.ar    1  UNL1       -0.2024
     21 N          61.1452   86.2402   12.7716 N.ar    1  UNL1       -0.1442
     22 C          60.6504   87.3514   11.8938 C.ar    1  UNL1        0.2073
     23 N          61.2007   87.1335   10.5155 N.ar    1  UNL1       -0.2397
     24 C          62.0356   85.8876   10.5414 C.ar    1  UNL1        0.3522
     25 O          62.7750   85.2975    9.3774 O.2     1  UNL1       -0.2444
     26 C          62.7005   84.0964   12.4107 C.3     1  UNL1        0.1099
     27 C          63.2950   84.0515   13.7871 C.3     1  UNL1        0.0265
     28 C          64.1322   82.5163   10.9262 C.3     1  UNL1        0.0021
     29 C          62.8052   82.9020   11.5093 C.3     1  UNL1        0.0245
     30 O          58.7790   95.8780   -1.4289 O.3     1  UNL1       -0.4727
     31 C          59.8288   96.8553   -1.8680 C.3     1  UNL1        0.2374
     32 C          60.9501   96.4031   -2.7559 C.3     1  UNL1        0.1909
     33 C          60.8334   96.0345   -4.2052 C.3     1  UNL1        0.1783
     34 O          62.1961   95.6438   -4.6954 O.3     1  UNL1       -0.3266
     35 C          63.1551   95.7709   -3.5490 C.3     1  UNL1        0.2315
     36 O          62.3850   96.2402   -2.3503 O.3     1  UNL1       -0.3254
     37 C          64.1699   95.3079   -4.5518 C.ar    1  UNL1        0.0410
     38 C          65.0563   96.3053   -5.2370 C.ar    1  UNL1        0.0022
     39 C          66.0712   95.8424   -6.2399 C.ar    1  UNL1        0.0113
     40 C          66.1997   94.3821   -6.5575 C.ar    1  UNL1        0.0585
     41 CL         67.2146   93.9192   -7.5603 Cl      1  UNL1       -0.0822
     42 C          65.3134   93.3847   -5.8723 C.ar    1  UNL1        0.0226
     43 C          64.2984   93.8476   -4.8694 C.ar    1  UNL1        0.0591
     44 CL         63.4121   92.8502   -4.1842 Cl      1  UNL1       -0.0824
     45 C          64.3262   95.8012   -2.6122 C.3     1  UNL1        0.1915
     46 N          64.2149   95.1792   -1.2518 N.ar    1  UNL1       -0.2054
     47 C          64.3388   95.8976    0.0590 C.ar    1  UNL1        0.2216
     48 N          64.1605   94.8920    1.1575 N.ar    1  UNL1       -0.1048
     49 N          63.9264   93.5519    0.5256 N.ar    1  UNL1       -0.0226
     50 N          63.9600   93.7294   -0.9635 N.ar    1  UNL1       -0.0427
@<TRIPOS>BOND
     1    28    29    1
     2    29    26    1
     3    26    27    1
     4    26    20    1
     5    20    21   ar
     6    21    22   ar
     7    22    23   ar
     8    23    13    1
     9    13    14   ar
    10    14    15   ar
    11    15    16   ar
    12    16     7    1
    13     7     8    1
    14     8     9    1
    15     9    10    1
    16    10     1    1
    17     1     2   ar
    18     2     3   ar
    19     3     4   ar
    20     4    30    1
    21    30    31    1
    22    32    31    1
    23    32    33    1
    24    33    34    1
    25    34    35    1
    26    35    45    1
    27    45    46    1
    28    46    47   ar
    29    47    48   ar
    30    48    49   ar
    31    49    50   ar
    32    35    37    1
    33    37    38   ar
    34    38    39   ar
    35    39    40   ar
    36    40    41    1
    37    40    42   ar
    38    42    43   ar
    39    43    44    1
    40    35    36    1
    41     4     5   ar
    42     5     6   ar
    43    10    11    1
    44    11    12    1
    45    16    17   ar
    46    17    18    1
    47    17    19   ar
    48    23    24   ar
    49    24    25    2
    50    24    20   ar
    51    19    13   ar
    52    12     7    1
    53     6     1   ar
    54    36    32    1
    55    50    46   ar
    56    43    37   ar
