@<TRIPOS>MOLECULE
*****
 49 55 0 0 0
SMALL
GASTEIGER

@<TRIPOS>ATOM
      1 C          59.8882   89.8556    6.9694 C.ar    1  UNL1        0.0481
      2 C          59.3398   88.4606    7.0235 C.ar    1  UNL1        0.0176
      3 C          59.3925   87.6831    8.3053 C.ar    1  UNL1        0.0382
      4 C          59.9938   88.3008    9.5329 C.ar    1  UNL1        0.1388
      5 C          60.5422   89.6959    9.4787 C.ar    1  UNL1        0.0382
      6 C          60.4894   90.4733    8.1970 C.ar    1  UNL1        0.0176
      7 N          59.7298   92.1878    3.1242 N.pl3   1  UNL1       -0.3041
      8 C          58.4642   91.8845    3.8700 C.3     1  UNL1        0.1122
      9 C          58.5170   91.1071    5.1518 C.3     1  UNL1        0.1122
     10 N          59.8354   90.6330    5.6877 N.pl3   1  UNL1       -0.3041
     11 C          61.1010   90.9363    4.9418 C.3     1  UNL1        0.1122
     12 C          61.0482   91.7137    3.6600 C.3     1  UNL1        0.1122
     13 C          59.5716   94.5200   -0.7210 C.ar    1  UNL1        0.0699
     14 C          60.5667   94.8884    0.3391 C.ar    1  UNL1        0.0190
     15 C          60.6194   94.1110    1.6208 C.ar    1  UNL1        0.0160
     16 C          59.6770   92.9652    1.8424 C.ar    1  UNL1        0.0480
     17 C          58.6819   92.5968    0.7822 C.ar    1  UNL1        0.0160
     18 C          58.6292   93.3742   -0.4995 C.ar    1  UNL1        0.0190
     19 N          60.0496   96.1347   -4.2182 N.ar    1  UNL1       -0.2024
     20 N          58.8255   96.8528   -3.7323 N.ar    1  UNL1       -0.1442
     21 C          58.4975   96.3353   -2.3631 C.ar    1  UNL1        0.2073
     22 N          59.5188   95.2974   -2.0028 N.ar    1  UNL1       -0.2398
     23 C          60.4780   95.1734   -3.1493 C.ar    1  UNL1        0.3522
     24 O          61.6584   94.2503   -3.2155 O.2     1  UNL1       -0.2444
     25 C          60.7263   96.3415   -5.5408 C.3     1  UNL1        0.1099
     26 C          59.9863   96.0581   -6.8144 C.3     1  UNL1        0.0265
     27 C          63.2293   95.9360   -6.1071 C.3     1  UNL1        0.0021
     28 C          62.1431   96.8317   -5.5898 C.3     1  UNL1        0.0245
     29 O          60.0466   87.5234   10.8146 O.3     1  UNL1       -0.4727
     30 C          61.3698   87.1069   11.3851 C.3     1  UNL1        0.2374
     31 C          62.2347   88.1127   12.0855 C.3     1  UNL1        0.1909
     32 C          62.1773   89.6010   11.9074 C.3     1  UNL1        0.1783
     33 O          63.2158   90.2150   12.7987 O.3     1  UNL1       -0.3266
     34 C          63.9150   89.1061   13.5278 C.3     1  UNL1        0.2315
     35 O          63.3086   87.8068   13.0870 O.3     1  UNL1       -0.3254
     36 C          64.7020   90.2223   14.1481 C.ar    1  UNL1        0.0410
     37 C          65.8957   90.7848   13.4350 C.ar    1  UNL1        0.0022
     38 C          66.6827   91.9011   14.0553 C.ar    1  UNL1        0.0113
     39 C          66.2760   92.4547   15.3886 C.ar    1  UNL1        0.0585
     40 CL         67.0629   93.5709   16.0089 Cl      1  UNL1       -0.0822
     41 C          65.0822   91.8922   16.1018 C.ar    1  UNL1        0.0226
     42 C          64.2952   90.7760   15.4815 C.ar    1  UNL1        0.0591
     43 CL         63.1015   90.2134   16.1947 Cl      1  UNL1       -0.0824
     44 C          64.7788   88.2306   14.3866 C.3     1  UNL1        0.1897
     45 N          64.1988   87.0077   15.0333 N.ar    1  UNL1       -0.2246
     46 C          64.4330   85.5891   14.6060 C.ar    1  UNL1        0.1974
     47 N          63.6618   84.6934   15.5294 N.ar    1  UNL1       -0.2007
     48 C          62.9508   85.5585   16.5275 C.ar    1  UNL1        0.2210
     49 N          63.2827   86.9888   16.2209 N.ar    1  UNL1       -0.1450
@<TRIPOS>BOND
     1    27    28    1
     2    28    25    1
     3    25    26    1
     4    25    19    1
     5    19    20   ar
     6    20    21   ar
     7    21    22   ar
     8    22    13    1
     9    13    14   ar
    10    14    15   ar
    11    15    16   ar
    12    16     7    1
    13     7     8    1
    14     8     9    1
    15     9    10    1
    16    10     1    1
    17     1     2   ar
    18     2     3   ar
    19     3     4   ar
    20     4    29    1
    21    29    30    1
    22    30    31    1
    23    31    32    1
    24    32    33    1
    25    33    34    1
    26    34    44    1
    27    44    45    1
    28    45    46   ar
    29    46    47   ar
    30    47    48   ar
    31    48    49   ar
    32    34    36    1
    33    36    37   ar
    34    37    38   ar
    35    38    39   ar
    36    39    40    1
    37    39    41   ar
    38    41    42   ar
    39    42    43    1
    40    34    35    1
    41     4     5   ar
    42     5     6   ar
    43    10    11    1
    44    11    12    1
    45    16    17   ar
    46    17    18   ar
    47    22    23   ar
    48    23    24    2
    49    23    19   ar
    50    18    13   ar
    51    12     7    1
    52     6     1   ar
    53    35    31    1
    54    49    45   ar
    55    42    36   ar
@<TRIPOS>MOLECULE
*****
 49 55 0 0 0
SMALL
GASTEIGER

@<TRIPOS>ATOM
      1 C          60.2437   90.2009    6.9151 C.ar    1  UNL1        0.0481
      2 C          59.4541   88.9563    7.1933 C.ar    1  UNL1        0.0176
      3 C          59.5881   88.2633    8.5170 C.ar    1  UNL1        0.0382
      4 C          60.5116   88.8149    9.5623 C.ar    1  UNL1        0.1388
      5 C          61.3013   90.0596    9.2840 C.ar    1  UNL1        0.0382
      6 C          61.1673   90.7525    7.9605 C.ar    1  UNL1        0.0176
      7 N          59.8419   92.2798    2.9444 N.pl3   1  UNL1       -0.3041
      8 C          58.6304   92.0569    3.8003 C.3     1  UNL1        0.1122
      9 C          58.7643   91.3640    5.1239 C.3     1  UNL1        0.1122
     10 N          60.1098   90.8938    5.5916 N.pl3   1  UNL1       -0.3041
     11 C          61.3213   91.1167    4.7356 C.3     1  UNL1        0.1122
     12 C          61.1873   91.8096    3.4121 C.3     1  UNL1        0.1122
     13 C          59.4401   94.3587   -1.0263 C.ar    1  UNL1        0.0699
     14 C          59.6006   95.1639    0.2290 C.ar    1  UNL1        0.0190
     15 C          59.7345   94.4710    1.5525 C.ar    1  UNL1        0.0160
     16 C          59.7080   92.9727    1.6208 C.ar    1  UNL1        0.0480
     17 C          59.5475   92.1675    0.3655 C.ar    1  UNL1        0.0160
     18 C          59.4136   92.8605   -0.9581 C.ar    1  UNL1        0.0190
     19 N          58.4203   95.8146   -4.4768 N.ar    1  UNL1       -0.2024
     20 N          59.7801   96.4216   -4.2966 N.ar    1  UNL1       -0.1442
     21 C          60.3277   95.9500   -2.9821 C.ar    1  UNL1        0.2073
     22 N          59.3062   95.0517   -2.3499 N.ar    1  UNL1       -0.2398
     23 C          58.1274   94.9680   -3.2737 C.ar    1  UNL1        0.3522
     24 O          56.8755   94.1767   -3.0361 O.2     1  UNL1       -0.2444
     25 C          57.5126   96.0185   -5.6535 C.3     1  UNL1        0.1099
     26 C          58.0010   95.7149   -7.0389 C.3     1  UNL1        0.0265
     27 C          54.9498   95.5958   -5.5969 C.3     1  UNL1        0.0021
     28 C          56.1166   96.5260   -5.4449 C.3     1  UNL1        0.0245
     29 O          60.6456   88.1220   10.8858 O.3     1  UNL1       -0.4727
     30 C          60.5924   88.9164   12.1570 C.3     1  UNL1        0.2374
     31 C          61.8174   89.6301   12.6473 C.3     1  UNL1        0.1909
     32 C          62.6177   90.6385   11.8773 C.3     1  UNL1        0.1783
     33 O          63.7520   91.0923   12.7476 O.3     1  UNL1       -0.3266
     34 C          63.6527   90.3644   14.0555 C.3     1  UNL1        0.2315
     35 O          62.4570   89.4607   13.9934 O.3     1  UNL1       -0.3254
     36 C          64.8812   91.1503   14.4062 C.ar    1  UNL1        0.0410
     37 C          66.0208   91.2339   13.4345 C.ar    1  UNL1        0.0022
     38 C          67.2494   92.0198   13.7852 C.ar    1  UNL1        0.0113
     39 C          67.3384   92.7220   15.1076 C.ar    1  UNL1        0.0585
     40 CL         68.5670   93.5079   15.4584 Cl      1  UNL1       -0.0822
     41 C          66.1988   92.6384   16.0795 C.ar    1  UNL1        0.0226
     42 C          64.9702   91.8525   15.7287 C.ar    1  UNL1        0.0591
     43 CL         63.8306   91.7689   16.7005 Cl      1  UNL1       -0.0824
     44 C          63.8102   89.8008   15.4366 C.3     1  UNL1        0.1897
     45 N          63.7376   88.3185   15.6546 N.ar    1  UNL1       -0.2246
     46 C          63.0511   87.6277   16.7954 C.ar    1  UNL1        0.1974
     47 N          63.2278   86.1491   16.6159 N.ar    1  UNL1       -0.2007
     48 C          64.0236   85.9260   15.3642 C.ar    1  UNL1        0.2210
     49 N          64.3387   87.2668   14.7700 N.ar    1  UNL1       -0.1450
@<TRIPOS>BOND
     1    27    28    1
     2    28    25    1
     3    25    26    1
     4    25    19    1
     5    19    20   ar
     6    20    21   ar
     7    21    22   ar
     8    22    13    1
     9    13    14   ar
    10    14    15   ar
    11    15    16   ar
    12    16     7    1
    13     7     8    1
    14     8     9    1
    15     9    10    1
    16    10     1    1
    17     1     2   ar
    18     2     3   ar
    19     3     4   ar
    20     4    29    1
    21    29    30    1
    22    30    31    1
    23    31    32    1
    24    32    33    1
    25    33    34    1
    26    34    44    1
    27    44    45    1
    28    45    46   ar
    29    46    47   ar
    30    47    48   ar
    31    48    49   ar
    32    34    36    1
    33    36    37   ar
    34    37    38   ar
    35    38    39   ar
    36    39    40    1
    37    39    41   ar
    38    41    42   ar
    39    42    43    1
    40    34    35    1
    41     4     5   ar
    42     5     6   ar
    43    10    11    1
    44    11    12    1
    45    16    17   ar
    46    17    18   ar
    47    22    23   ar
    48    23    24    2
    49    23    19   ar
    50    18    13   ar
    51    12     7    1
    52     6     1   ar
    53    35    31    1
    54    49    45   ar
    55    42    36   ar
@<TRIPOS>MOLECULE
*****
 49 55 0 0 0
SMALL
GASTEIGER

@<TRIPOS>ATOM
      1 C          59.4408   93.4513    1.8100 C.ar    1  UNL1        0.0481
      2 C          60.0057   94.8405    1.7800 C.ar    1  UNL1        0.0176
      3 C          59.7756   95.7181    0.5854 C.ar    1  UNL1        0.0382
      4 C          58.9805   95.2064   -0.5791 C.ar    1  UNL1        0.1388
      5 C          58.4155   93.8172   -0.5490 C.ar    1  UNL1        0.0382
      6 C          58.6457   92.9396    0.6455 C.ar    1  UNL1        0.0176
      7 N          60.1312   90.8187    5.3937 N.pl3   1  UNL1       -0.3041
      8 C          58.7475   91.3004    5.0725 C.3     1  UNL1        0.1122
      9 C          58.5173   92.1780    3.8779 C.3     1  UNL1        0.1122
     10 N          59.6709   92.5738    3.0046 N.pl3   1  UNL1       -0.3041
     11 C          61.0546   92.0920    3.3259 C.3     1  UNL1        0.1122
     12 C          61.2848   91.2144    4.5204 C.3     1  UNL1        0.1122
     13 C          60.8218   88.1861    8.9774 C.ar    1  UNL1        0.0699
     14 C          61.4271   89.5576    8.9265 C.ar    1  UNL1        0.0190
     15 C          61.1969   90.4351    7.7319 C.ar    1  UNL1        0.0160
     16 C          60.3614   89.9411    6.5883 C.ar    1  UNL1        0.0480
     17 C          59.7561   88.5696    6.6392 C.ar    1  UNL1        0.0160
     18 C          59.9863   87.6921    7.8337 C.ar    1  UNL1        0.0190
     19 N          61.8849   85.5408   11.6113 N.ar    1  UNL1       -0.2024
     20 N          60.9274   86.3756   12.4091 N.ar    1  UNL1       -0.1442
     21 C          60.4127   87.4681   11.5195 C.ar    1  UNL1        0.2073
     22 N          61.0520   87.3086   10.1719 N.ar    1  UNL1       -0.2398
     23 C          61.9619   86.1174   10.2287 C.ar    1  UNL1        0.3522
     24 O          62.8013   85.5946    9.1009 O.2     1  UNL1       -0.2444
     25 C          62.6339   84.3401   12.1088 C.3     1  UNL1        0.1099
     26 C          63.3246   84.3854   13.4395 C.3     1  UNL1        0.0265
     27 C          63.9970   82.6452   10.6879 C.3     1  UNL1        0.0021
     28 C          62.6921   83.0942   11.2756 C.3     1  UNL1        0.0245
     29 O          58.7504   96.0839   -1.7736 O.3     1  UNL1       -0.4727
     30 C          58.8026   95.5001   -3.1543 C.3     1  UNL1        0.2374
     31 C          60.1247   95.2980   -3.8336 C.3     1  UNL1        0.1909
     32 C          60.3380   94.6665   -5.1774 C.3     1  UNL1        0.1783
     33 O          61.8106   94.6702   -5.4628 O.3     1  UNL1       -0.3266
     34 C          62.5074   95.3040   -4.2954 C.3     1  UNL1        0.2315
     35 O          61.4654   95.6920   -3.2885 O.3     1  UNL1       -0.3254
     36 C          63.7493   95.0368   -5.0930 C.ar    1  UNL1        0.0410
     37 C          64.4379   96.1614   -5.8079 C.ar    1  UNL1        0.0022
     38 C          65.6798   95.8942   -6.6057 C.ar    1  UNL1        0.0113
     39 C          66.2330   94.5025   -6.6885 C.ar    1  UNL1        0.0585
     40 CL         67.4749   94.2353   -7.4861 Cl      1  UNL1       -0.0822
     41 C          65.5445   93.3778   -5.9736 C.ar    1  UNL1        0.0226
     42 C          64.3025   93.6450   -5.1758 C.ar    1  UNL1        0.0591
     43 CL         63.6139   92.5204   -4.4610 Cl      1  UNL1       -0.0824
     44 C          63.4638   95.8819   -3.2947 C.3     1  UNL1        0.1897
     45 N          63.4984   95.3462   -1.8941 N.ar    1  UNL1       -0.2246
     46 C          63.3097   96.1459   -0.6393 C.ar    1  UNL1        0.1974
     47 N          63.4225   95.2107    0.5279 N.ar    1  UNL1       -0.2007
     48 C          63.6809   93.8327   -0.0055 C.ar    1  UNL1        0.2210
     49 N          63.7279   93.9165   -1.5024 N.ar    1  UNL1       -0.1450
@<TRIPOS>BOND
     1    27    28    1
     2    28    25    1
     3    25    26    1
     4    25    19    1
     5    19    20   ar
     6    20    21   ar
     7    21    22   ar
     8    22    13    1
     9    13    14   ar
    10    14    15   ar
    11    15    16   ar
    12    16     7    1
    13     7     8    1
    14     8     9    1
    15     9    10    1
    16    10     1    1
    17     1     2   ar
    18     2     3   ar
    19     3     4   ar
    20     4    29    1
    21    29    30    1
    22    30    31    1
    23    31    32    1
    24    32    33    1
    25    33    34    1
    26    34    44    1
    27    44    45    1
    28    45    46   ar
    29    46    47   ar
    30    47    48   ar
    31    48    49   ar
    32    34    36    1
    33    36    37   ar
    34    37    38   ar
    35    38    39   ar
    36    39    40    1
    37    39    41   ar
    38    41    42   ar
    39    42    43    1
    40    34    35    1
    41     4     5   ar
    42     5     6   ar
    43    10    11    1
    44    11    12    1
    45    16    17   ar
    46    17    18   ar
    47    22    23   ar
    48    23    24    2
    49    23    19   ar
    50    18    13   ar
    51    12     7    1
    52     6     1   ar
    53    35    31    1
    54    49    45   ar
    55    42    36   ar
@<TRIPOS>MOLECULE
*****
 49 55 0 0 0
SMALL
GASTEIGER

@<TRIPOS>ATOM
      1 C          60.3898   90.4343    6.7565 C.ar    1  UNL1        0.0481
      2 C          59.5129   89.2820    7.1480 C.ar    1  UNL1        0.0176
      3 C          59.6621   88.6520    8.5011 C.ar    1  UNL1        0.0382
      4 C          60.6881   89.1742    9.4627 C.ar    1  UNL1        0.1388
      5 C          61.5649   90.3266    9.0711 C.ar    1  UNL1        0.0382
      6 C          61.4158   90.9566    7.7180 C.ar    1  UNL1        0.0176
      7 N          59.9424   92.3244    2.6972 N.pl3   1  UNL1       -0.3041
      8 C          58.7446   92.1633    3.5857 C.3     1  UNL1        0.1122
      9 C          58.8937   91.5333    4.9388 C.3     1  UNL1        0.1122
     10 N          60.2406   91.0643    5.4034 N.pl3   1  UNL1       -0.3041
     11 C          61.4384   91.2254    4.5149 C.3     1  UNL1        0.1122
     12 C          61.2893   91.8554    3.1619 C.3     1  UNL1        0.1122
     13 C          59.4950   94.2145   -1.3620 C.ar    1  UNL1        0.0699
     14 C          59.3840   95.0571   -0.1260 C.ar    1  UNL1        0.0190
     15 C          59.5331   94.4270    1.2270 C.ar    1  UNL1        0.0160
     16 C          59.7932   92.9544    1.3441 C.ar    1  UNL1        0.0480
     17 C          59.9043   92.1118    0.1081 C.ar    1  UNL1        0.0160
     18 C          59.7552   92.7419   -1.2449 C.ar    1  UNL1        0.0190
     19 N          58.5391   95.3589   -4.9456 N.ar    1  UNL1       -0.2024
     20 N          59.6939   96.2692   -4.6490 N.ar    1  UNL1       -0.1442
     21 C          60.1926   95.9512   -3.2705 C.ar    1  UNL1        0.2073
     22 N          59.3459   94.8445   -2.7151 N.ar    1  UNL1       -0.2398
     23 C          58.3240   94.4785   -3.7503 C.ar    1  UNL1        0.3522
     24 O          57.2717   93.4182   -3.6143 O.2     1  UNL1       -0.2444
     25 C          57.7396   95.3337   -6.2145 C.3     1  UNL1        0.1099
     26 C          58.2091   94.5151   -7.3805 C.3     1  UNL1        0.0265
     27 C          55.3305   95.8424   -5.3857 C.3     1  UNL1        0.0021
     28 C          56.4708   96.1270   -6.3176 C.3     1  UNL1        0.0245
     29 O          60.8372   88.5442   10.8157 O.3     1  UNL1       -0.4727
     30 C          62.1428   87.9221   11.2135 C.3     1  UNL1        0.2374
     31 C          62.2044   86.4635   11.5582 C.3     1  UNL1        0.1909
     32 C          61.5375   85.3507   10.8053 C.3     1  UNL1        0.1783
     33 O          61.8646   84.0611   11.4980 O.3     1  UNL1       -0.3266
     34 C          62.7338   84.3769   12.6791 C.3     1  UNL1        0.2315
     35 O          62.9438   85.8616   12.7162 O.3     1  UNL1       -0.3254
     36 C          62.7042   82.8933   12.8984 C.ar    1  UNL1        0.0410
     37 C          61.8446   82.3123   13.9817 C.ar    1  UNL1        0.0022
     38 C          61.8149   80.8287   14.2010 C.ar    1  UNL1        0.0113
     39 C          62.6448   79.9261   13.3370 C.ar    1  UNL1        0.0585
     40 CL         62.6152   78.4426   13.5563 Cl      1  UNL1       -0.0822
     41 C          63.5045   80.5070   12.2537 C.ar    1  UNL1        0.0226
     42 C          63.5341   81.9907   12.0343 C.ar    1  UNL1        0.0591
     43 CL         64.3937   82.5717   10.9510 Cl      1  UNL1       -0.0824
     44 C          63.5967   84.3825   13.9060 C.3     1  UNL1        0.1897
     45 N          63.1868   85.1813   15.1076 N.ar    1  UNL1       -0.2246
     46 C          62.0763   84.8400   16.0563 C.ar    1  UNL1        0.1974
     47 N          62.0187   85.9094   17.1065 N.ar    1  UNL1       -0.2007
     48 C          63.0936   86.9117   16.8068 C.ar    1  UNL1        0.2210
     49 N          63.8156   86.4618   15.5714 N.ar    1  UNL1       -0.1450
@<TRIPOS>BOND
     1    27    28    1
     2    28    25    1
     3    25    26    1
     4    25    19    1
     5    19    20   ar
     6    20    21   ar
     7    21    22   ar
     8    22    13    1
     9    13    14   ar
    10    14    15   ar
    11    15    16   ar
    12    16     7    1
    13     7     8    1
    14     8     9    1
    15     9    10    1
    16    10     1    1
    17     1     2   ar
    18     2     3   ar
    19     3     4   ar
    20     4    29    1
    21    29    30    1
    22    30    31    1
    23    31    32    1
    24    32    33    1
    25    33    34    1
    26    34    44    1
    27    44    45    1
    28    45    46   ar
    29    46    47   ar
    30    47    48   ar
    31    48    49   ar
    32    34    36    1
    33    36    37   ar
    34    37    38   ar
    35    38    39   ar
    36    39    40    1
    37    39    41   ar
    38    41    42   ar
    39    42    43    1
    40    34    35    1
    41     4     5   ar
    42     5     6   ar
    43    10    11    1
    44    11    12    1
    45    16    17   ar
    46    17    18   ar
    47    22    23   ar
    48    23    24    2
    49    23    19   ar
    50    18    13   ar
    51    12     7    1
    52     6     1   ar
    53    35    31    1
    54    49    45   ar
    55    42    36   ar
@<TRIPOS>MOLECULE
*****
 49 55 0 0 0
SMALL
GASTEIGER

@<TRIPOS>ATOM
      1 C          60.1322   89.7818    7.3497 C.ar    1  UNL1        0.0481
      2 C          59.9744   88.2904    7.3719 C.ar    1  UNL1        0.0176
      3 C          60.1427   87.5374    8.6583 C.ar    1  UNL1        0.0382
      4 C          60.4688   88.2760    9.9225 C.ar    1  UNL1        0.1388
      5 C          60.6266   89.7676    9.9002 C.ar    1  UNL1        0.0382
      6 C          60.4583   90.5204    8.6139 C.ar    1  UNL1        0.0176
      7 N          59.6274   92.0405    3.4905 N.pl3   1  UNL1       -0.3041
      8 C          58.4301   91.7264    4.3378 C.3     1  UNL1        0.1122
      9 C          58.5984   90.9735    5.6242 C.3     1  UNL1        0.1122
     10 N          59.9639   90.5347    6.0633 N.pl3   1  UNL1       -0.3041
     11 C          61.1612   90.8488    5.2159 C.3     1  UNL1        0.1122
     12 C          60.9929   91.6017    3.9296 C.3     1  UNL1        0.1122
     13 C          59.1225   94.2991   -0.3688 C.ar    1  UNL1        0.0699
     14 C          58.2125   93.1509   -0.0472 C.ar    1  UNL1        0.0190
     15 C          58.3808   92.3980    1.2392 C.ar    1  UNL1        0.0160
     16 C          59.4591   92.7934    2.2040 C.ar    1  UNL1        0.0480
     17 C          60.3691   93.9416    1.8825 C.ar    1  UNL1        0.0160
     18 C          60.2008   94.6945    0.5961 C.ar    1  UNL1        0.0190
     19 N          58.7328   95.5663   -4.0168 N.ar    1  UNL1       -0.2024
     20 N          58.6579   96.8550   -3.2528 N.ar    1  UNL1       -0.1442
     21 C          58.7948   96.5371   -1.7932 C.ar    1  UNL1        0.2073
     22 N          58.9543   95.0520   -1.6552 N.ar    1  UNL1       -0.2398
     23 C          58.9160   94.4520   -3.0294 C.ar    1  UNL1        0.3522
     24 O          59.0391   92.9938   -3.3586 O.2     1  UNL1       -0.2444
     25 C          58.6407   95.4179   -5.5066 C.3     1  UNL1        0.1099
     26 C          57.4069   94.8327   -6.1272 C.3     1  UNL1        0.0265
     27 C          60.4941   94.8548   -7.2379 C.3     1  UNL1        0.0021
     28 C          59.7824   95.8548   -6.3759 C.3     1  UNL1        0.0245
     29 O          60.6371   87.5231   11.2089 O.3     1  UNL1       -0.4727
     30 C          61.9993   87.0627   11.6356 C.3     1  UNL1        0.2374
     31 C          62.9036   87.9927   12.3890 C.3     1  UNL1        0.1909
     32 C          63.8765   87.6003   13.4611 C.3     1  UNL1        0.1783
     33 O          64.5679   88.8434   13.9372 O.3     1  UNL1       -0.3266
     34 C          64.0221   90.0041   13.1593 C.3     1  UNL1        0.2315
     35 O          62.9935   89.4783   12.2025 O.3     1  UNL1       -0.3254
     36 C          64.9784   90.8077   13.9899 C.ar    1  UNL1        0.0410
     37 C          66.3583   91.0955   13.4770 C.ar    1  UNL1        0.0022
     38 C          67.3147   91.8991   14.3076 C.ar    1  UNL1        0.0113
     39 C          66.8911   92.4148   15.6509 C.ar    1  UNL1        0.0585
     40 CL         67.8474   93.2183   16.4814 Cl      1  UNL1       -0.0822
     41 C          65.5112   92.1269   16.1638 C.ar    1  UNL1        0.0226
     42 C          64.5548   91.3234   15.3333 C.ar    1  UNL1        0.0591
     43 CL         63.1750   91.0355   15.8461 Cl      1  UNL1       -0.0824
     44 C          63.6763   91.3328   12.5551 C.3     1  UNL1        0.1897
     45 N          64.6970   92.0775   11.7466 N.ar    1  UNL1       -0.2246
     46 C          65.2925   93.4105   12.0904 C.ar    1  UNL1        0.1974
     47 N          66.2649   93.7767   11.0086 N.ar    1  UNL1       -0.2007
     48 C          66.2703   92.6700    9.9961 C.ar    1  UNL1        0.2210
     49 N          65.3013   91.6198   10.4522 N.ar    1  UNL1       -0.1450
@<TRIPOS>BOND
     1    27    28    1
     2    28    25    1
     3    25    26    1
     4    25    19    1
     5    19    20   ar
     6    20    21   ar
     7    21    22   ar
     8    22    13    1
     9    13    14   ar
    10    14    15   ar
    11    15    16   ar
    12    16     7    1
    13     7     8    1
    14     8     9    1
    15     9    10    1
    16    10     1    1
    17     1     2   ar
    18     2     3   ar
    19     3     4   ar
    20     4    29    1
    21    29    30    1
    22    30    31    1
    23    31    32    1
    24    32    33    1
    25    33    34    1
    26    34    44    1
    27    44    45    1
    28    45    46   ar
    29    46    47   ar
    30    47    48   ar
    31    48    49   ar
    32    34    36    1
    33    36    37   ar
    34    37    38   ar
    35    38    39   ar
    36    39    40    1
    37    39    41   ar
    38    41    42   ar
    39    42    43    1
    40    34    35    1
    41     4     5   ar
    42     5     6   ar
    43    10    11    1
    44    11    12    1
    45    16    17   ar
    46    17    18   ar
    47    22    23   ar
    48    23    24    2
    49    23    19   ar
    50    18    13   ar
    51    12     7    1
    52     6     1   ar
    53    35    31    1
    54    49    45   ar
    55    42    36   ar
@<TRIPOS>MOLECULE
*****
 49 55 0 0 0
SMALL
GASTEIGER

@<TRIPOS>ATOM
      1 C          59.6551   93.6281    2.0136 C.ar    1  UNL1        0.0481
      2 C          58.9912   93.1251    0.7661 C.ar    1  UNL1        0.0176
      3 C          58.7843   94.0483   -0.3979 C.ar    1  UNL1        0.0382
      4 C          59.2412   95.4746   -0.3144 C.ar    1  UNL1        0.1388
      5 C          59.9051   95.9776    0.9331 C.ar    1  UNL1        0.0382
      6 C          60.1120   95.0544    2.0971 C.ar    1  UNL1        0.0176
      7 N          60.2757   90.8585    5.5055 N.pl3   1  UNL1       -0.3041
      8 C          61.4273   91.2044    4.6088 C.3     1  UNL1        0.1122
      9 C          61.2204   92.1277    3.4447 C.3     1  UNL1        0.1122
     10 N          59.8620   92.7049    3.1775 N.pl3   1  UNL1       -0.3041
     11 C          58.7104   92.3589    4.0744 C.3     1  UNL1        0.1122
     12 C          58.9173   91.4357    5.2383 C.3     1  UNL1        0.1122
     13 C          60.8963   88.0889    8.9975 C.ar    1  UNL1        0.0699
     14 C          61.5300   89.4485    8.9968 C.ar    1  UNL1        0.0190
     15 C          61.3231   90.3716    7.8328 C.ar    1  UNL1        0.0160
     16 C          60.4826   89.9352    6.6695 C.ar    1  UNL1        0.0480
     17 C          59.8489   88.5757    6.6703 C.ar    1  UNL1        0.0160
     18 C          60.0558   87.6525    7.8343 C.ar    1  UNL1        0.0190
     19 N          61.9090   85.3438   11.5480 N.ar    1  UNL1       -0.2024
     20 N          60.9339   86.1461   12.3576 N.ar    1  UNL1       -0.1442
     21 C          60.4359   87.2721   11.5007 C.ar    1  UNL1        0.2073
     22 N          61.1032   87.1656   10.1615 N.ar    1  UNL1       -0.2398
     23 C          62.0137   85.9739   10.1908 C.ar    1  UNL1        0.3522
     24 O          62.8772   85.4962    9.0611 O.2     1  UNL1       -0.2444
     25 C          62.6496   84.1254   12.0138 C.3     1  UNL1        0.1099
     26 C          63.1755   84.0582   13.4169 C.3     1  UNL1        0.0265
     27 C          64.1390   82.8724   10.2929 C.3     1  UNL1        0.0021
     28 C          62.8641   82.9741   11.0765 C.3     1  UNL1        0.0245
     29 O          59.0343   96.3978   -1.4784 O.3     1  UNL1       -0.4727
     30 C          57.6653   96.5666   -2.0676 C.3     1  UNL1        0.2374
     31 C          57.0676   95.4725   -2.9017 C.3     1  UNL1        0.1909
     32 C          55.6480   94.9919   -2.8397 C.3     1  UNL1        0.1783
     33 O          55.4876   93.8893   -3.8439 O.3     1  UNL1       -0.3266
     34 C          56.8081   93.6884   -4.5266 C.3     1  UNL1        0.2315
     35 O          57.7845   94.6668   -3.9443 O.3     1  UNL1       -0.3254
     36 C          56.0756   92.6213   -5.2847 C.ar    1  UNL1        0.0410
     37 C          55.7464   92.8228   -6.7342 C.ar    1  UNL1        0.0022
     38 C          55.0139   91.7557   -7.4924 C.ar    1  UNL1        0.0113
     39 C          54.6106   90.4872   -6.8011 C.ar    1  UNL1        0.0585
     40 CL         53.8781   89.4201   -7.5593 Cl      1  UNL1       -0.0822
     41 C          54.9397   90.2855   -5.3516 C.ar    1  UNL1        0.0226
     42 C          55.6722   91.3527   -4.5934 C.ar    1  UNL1        0.0591
     43 CL         56.0014   91.1511   -3.1439 Cl      1  UNL1       -0.0824
     44 C          57.9754   93.2644   -5.3678 C.3     1  UNL1        0.1897
     45 N          58.8607   94.2984   -5.9978 N.ar    1  UNL1       -0.2246
     46 C          60.2574   94.6411   -5.5719 C.ar    1  UNL1        0.1974
     47 N          60.7647   95.7257   -6.4753 N.ar    1  UNL1       -0.2007
     48 C          59.6813   96.0534   -7.4597 C.ar    1  UNL1        0.2210
     49 N          58.5046   95.1713   -7.1646 N.ar    1  UNL1       -0.1450
@<TRIPOS>BOND
     1    27    28    1
     2    28    25    1
     3    25    26    1
     4    25    19    1
     5    19    20   ar
     6    20    21   ar
     7    21    22   ar
     8    22    13    1
     9    13    14   ar
    10    14    15   ar
    11    15    16   ar
    12    16     7    1
    13     7     8    1
    14     8     9    1
    15     9    10    1
    16    10     1    1
    17     1     2   ar
    18     2     3   ar
    19     3     4   ar
    20     4    29    1
    21    29    30    1
    22    30    31    1
    23    31    32    1
    24    32    33    1
    25    33    34    1
    26    34    44    1
    27    44    45    1
    28    45    46   ar
    29    46    47   ar
    30    47    48   ar
    31    48    49   ar
    32    34    36    1
    33    36    37   ar
    34    37    38   ar
    35    38    39   ar
    36    39    40    1
    37    39    41   ar
    38    41    42   ar
    39    42    43    1
    40    34    35    1
    41     4     5   ar
    42     5     6   ar
    43    10    11    1
    44    11    12    1
    45    16    17   ar
    46    17    18   ar
    47    22    23   ar
    48    23    24    2
    49    23    19   ar
    50    18    13   ar
    51    12     7    1
    52     6     1   ar
    53    35    31    1
    54    49    45   ar
    55    42    36   ar
