@<TRIPOS>MOLECULE
*****
 28 31 0 0 0
SMALL
GASTEIGER

@<TRIPOS>ATOM
      1 C          65.9163   94.4105   10.9632 C.3     1  UNL1        0.0742
      2 C          66.1036   93.7987   12.3199 C.ar    1  UNL1        0.1472
      3 N          66.9816   94.3308   13.4135 N.ar    1  UNL1       -0.1333
      4 N          66.8664   93.4084   14.5907 N.ar    1  UNL1       -0.1333
      5 C          65.9171   92.3062   14.2247 C.ar    1  UNL1        0.1471
      6 N          65.4457   92.5474   12.8213 N.ar    1  UNL1       -0.2810
      7 C          64.4781   91.5965   12.1812 C.ar    1  UNL1        0.0622
      8 C          64.0067   91.8377   10.7778 C.ar    1  UNL1        0.0173
      9 C          63.0393   90.8868   10.1378 C.ar    1  UNL1        0.0015
     10 C          62.5432   89.6946   10.9011 C.ar    1  UNL1        0.0013
     11 C          63.0146   89.4534   12.3045 C.ar    1  UNL1       -0.0028
     12 C          63.9821   90.4043   12.9445 C.ar    1  UNL1       -0.0056
     13 C          64.4536   90.1631   14.3480 C.3     1  UNL1        0.0358
     14 C          65.4210   91.1140   14.9880 C.3     1  UNL1        0.0709
     15 C          61.5757   88.7437   10.2610 C.ar    1  UNL1        0.0189
     16 C          60.1049   88.8819   10.5212 C.ar    1  UNL1        0.0988
     17 N          59.1374   87.9309    9.8811 N.ar    1  UNL1       -0.2426
     18 C          59.6407   86.8418    8.9807 C.ar    1  UNL1        0.0971
     19 C          61.1116   86.7037    8.7205 C.ar    1  UNL1        0.0289
     20 C          62.0790   87.6546    9.3606 C.ar    1  UNL1        0.0013
     21 C          61.6149   85.6146    7.8202 C.3     1  UNL1        0.1959
     22 C          62.1182   84.5256    6.9199 C.3     1  UNL1        0.0428
     23 O          60.5648   85.9659    6.8083 O.3     1  UNL1       -0.3751
     24 H          60.7921   85.5659    5.9543 H       1  UNL1        0.2110
     25 C          62.6649   85.2634    8.8321 C.3     1  UNL1        0.4231
     26 F          63.7150   84.9121    9.8441 F       1  UNL1       -0.1673
     27 F          61.8797   84.8430   10.0391 F       1  UNL1       -0.1673
     28 F          63.7361   85.6090    7.8406 F       1  UNL1       -0.1673
@<TRIPOS>BOND
     1     1     2    1
     2     2     3   ar
     3     3     4   ar
     4     4     5   ar
     5     5     6   ar
     6     6     7    1
     7     7     8   ar
     8     8     9   ar
     9     9    10   ar
    10    10    15    1
    11    15    16   ar
    12    16    17   ar
    13    17    18   ar
    14    18    19   ar
    15    19    21    1
    16    21    22    1
    17    21    23    1
    18    21    25    1
    19    25    26    1
    20    25    27    1
    21    25    28    1
    22    19    20   ar
    23    10    11   ar
    24    11    12   ar
    25    12    13    1
    26    13    14    1
    27     6     2   ar
    28    12     7   ar
    29    14     5    1
    30    20    15   ar
    31    23    24    1
@<TRIPOS>MOLECULE
*****
 28 31 0 0 0
SMALL
GASTEIGER

@<TRIPOS>ATOM
      1 C          62.4743   84.8458   10.7309 C.3     1  UNL1        0.0742
      2 C          61.7360   85.8695    9.9203 C.ar    1  UNL1        0.1472
      3 N          60.9124   85.5982    8.6964 N.ar    1  UNL1       -0.1333
      4 N          60.3591   86.9052    8.2110 N.ar    1  UNL1       -0.1333
      5 C          60.8407   87.9842    9.1350 C.ar    1  UNL1        0.1471
      6 N          61.6916   87.3441   10.1914 N.ar    1  UNL1       -0.2810
      7 C          62.3162   88.1867   11.2638 C.ar    1  UNL1        0.0622
      8 C          63.1672   87.5466   12.3202 C.ar    1  UNL1        0.0173
      9 C          63.7918   88.3892   13.3925 C.ar    1  UNL1        0.0015
     10 C          63.5654   89.8719   13.4084 C.ar    1  UNL1        0.0013
     11 C          62.7144   90.5120   12.3520 C.ar    1  UNL1       -0.0028
     12 C          62.0898   89.6694   11.2797 C.ar    1  UNL1       -0.0056
     13 C          61.2388   90.3095   10.2232 C.3     1  UNL1        0.0358
     14 C          60.6142   89.4669    9.1509 C.3     1  UNL1        0.0709
     15 C          64.1900   90.7145   14.4807 C.ar    1  UNL1        0.0189
     16 C          63.4148   91.0452   15.7215 C.ar    1  UNL1        0.0988
     17 N          64.0394   91.8879   16.7939 N.ar    1  UNL1       -0.2426
     18 C          65.4392   92.3997   16.6254 C.ar    1  UNL1        0.0971
     19 C          66.2145   92.0690   15.3845 C.ar    1  UNL1        0.0289
     20 C          65.5898   91.2264   14.3122 C.ar    1  UNL1        0.0013
     21 C          67.6143   92.5808   15.2161 C.3     1  UNL1        0.1959
     22 C          69.0142   93.0927   15.0476 C.3     1  UNL1        0.0428
     23 O          67.9605   92.0863   16.5892 O.3     1  UNL1       -0.3751
     24 H          68.9249   92.0582   16.6892 H       1  UNL1        0.2110
     25 C          67.2682   93.0754   13.8429 C.3     1  UNL1        0.4231
     26 F          66.9221   93.5700   12.4697 F       1  UNL1       -0.1673
     27 F          66.3992   94.2715   14.0962 F       1  UNL1       -0.1673
     28 F          68.0775   91.9660   13.2393 F       1  UNL1       -0.1673
@<TRIPOS>BOND
     1     1     2    1
     2     2     3   ar
     3     3     4   ar
     4     4     5   ar
     5     5     6   ar
     6     6     7    1
     7     7     8   ar
     8     8     9   ar
     9     9    10   ar
    10    10    15    1
    11    15    16   ar
    12    16    17   ar
    13    17    18   ar
    14    18    19   ar
    15    19    21    1
    16    21    22    1
    17    21    23    1
    18    21    25    1
    19    25    26    1
    20    25    27    1
    21    25    28    1
    22    19    20   ar
    23    10    11   ar
    24    11    12   ar
    25    12    13    1
    26    13    14    1
    27     6     2   ar
    28    12     7   ar
    29    14     5    1
    30    20    15   ar
    31    23    24    1
@<TRIPOS>MOLECULE
*****
 28 31 0 0 0
SMALL
GASTEIGER

@<TRIPOS>ATOM
      1 C          61.9722   85.4437   10.0757 C.3     1  UNL1        0.0742
      2 C          62.4699   84.4490   11.0820 C.ar    1  UNL1        0.1472
      3 N          62.3850   82.9561   10.9627 N.ar    1  UNL1       -0.1333
      4 N          63.0026   82.3570   12.1913 N.ar    1  UNL1       -0.1333
      5 C          63.4693   83.4796   13.0700 C.ar    1  UNL1        0.1471
      6 N          63.1401   84.7724   12.3844 N.ar    1  UNL1       -0.2810
      7 C          63.4930   86.0773   13.0347 C.ar    1  UNL1        0.0622
      8 C          63.1638   87.3702   12.3491 C.ar    1  UNL1        0.0173
      9 C          63.5168   88.6750   12.9994 C.ar    1  UNL1        0.0015
     10 C          64.1990   88.6869   14.3352 C.ar    1  UNL1        0.0013
     11 C          64.5282   87.3940   15.0208 C.ar    1  UNL1       -0.0028
     12 C          64.1752   86.0892   14.3705 C.ar    1  UNL1       -0.0056
     13 C          64.5045   84.7963   15.0561 C.3     1  UNL1        0.0358
     14 C          64.1515   83.4915   14.4059 C.3     1  UNL1        0.0709
     15 C          64.5519   89.9918   14.9855 C.ar    1  UNL1        0.0189
     16 C          63.5613   90.6761   15.8800 C.ar    1  UNL1        0.0988
     17 N          63.9142   91.9810   16.5303 N.ar    1  UNL1       -0.2426
     18 C          65.2579   92.6015   16.2859 C.ar    1  UNL1        0.0971
     19 C          66.2485   91.9170   15.3914 C.ar    1  UNL1        0.0289
     20 C          65.8955   90.6122   14.7412 C.ar    1  UNL1        0.0013
     21 C          67.5922   92.5375   15.1470 C.3     1  UNL1        0.1959
     22 C          68.9358   93.1580   14.9027 C.3     1  UNL1        0.0428
     23 O          67.9231   92.3943   16.6031 O.3     1  UNL1       -0.3751
     24 H          68.8791   92.4993   16.7292 H       1  UNL1        0.2110
     25 C          67.2613   92.6807   13.6910 C.3     1  UNL1        0.4231
     26 F          66.9304   92.8239   12.2350 F       1  UNL1       -0.1673
     27 F          66.1758   93.7156   13.6655 F       1  UNL1       -0.1673
     28 F          68.2975   91.6499   13.3541 F       1  UNL1       -0.1673
@<TRIPOS>BOND
     1     1     2    1
     2     2     3   ar
     3     3     4   ar
     4     4     5   ar
     5     5     6   ar
     6     6     7    1
     7     7     8   ar
     8     8     9   ar
     9     9    10   ar
    10    10    15    1
    11    15    16   ar
    12    16    17   ar
    13    17    18   ar
    14    18    19   ar
    15    19    21    1
    16    21    22    1
    17    21    23    1
    18    21    25    1
    19    25    26    1
    20    25    27    1
    21    25    28    1
    22    19    20   ar
    23    10    11   ar
    24    11    12   ar
    25    12    13    1
    26    13    14    1
    27     6     2   ar
    28    12     7   ar
    29    14     5    1
    30    20    15   ar
    31    23    24    1
@<TRIPOS>MOLECULE
*****
 28 31 0 0 0
SMALL
GASTEIGER

@<TRIPOS>ATOM
      1 C          59.7850   89.7101    7.8223 C.3     1  UNL1        0.0742
      2 C          60.0720   88.2664    8.1110 C.ar    1  UNL1        0.1472
      3 N          59.5708   87.0930    7.3223 N.ar    1  UNL1       -0.1333
      4 N          60.0996   85.8441    7.9629 N.ar    1  UNL1       -0.1333
      5 C          60.9276   86.2455    9.1475 C.ar    1  UNL1        0.1471
      6 N          60.9105   87.7426    9.2390 N.ar    1  UNL1       -0.2810
      7 C          61.6607   88.4355   10.3377 C.ar    1  UNL1        0.0622
      8 C          61.6436   89.9326   10.4292 C.ar    1  UNL1        0.0173
      9 C          62.3938   90.6254   11.5279 C.ar    1  UNL1        0.0015
     10 C          63.1611   89.8211   12.5351 C.ar    1  UNL1        0.0013
     11 C          63.1782   88.3240   12.4436 C.ar    1  UNL1       -0.0028
     12 C          62.4280   87.6312   11.3449 C.ar    1  UNL1       -0.0056
     13 C          62.4451   86.1341   11.2534 C.3     1  UNL1        0.0358
     14 C          61.6949   85.4412   10.1547 C.3     1  UNL1        0.0709
     15 C          63.9114   90.5140   13.6338 C.ar    1  UNL1        0.0189
     16 C          63.2474   90.7597   14.9562 C.ar    1  UNL1        0.0988
     17 N          63.9976   91.4526   16.0549 N.ar    1  UNL1       -0.2426
     18 C          65.4118   91.8998   15.8312 C.ar    1  UNL1        0.0971
     19 C          66.0758   91.6541   14.5087 C.ar    1  UNL1        0.0289
     20 C          65.3255   90.9612   13.4101 C.ar    1  UNL1        0.0013
     21 C          67.4900   92.1013   14.2849 C.3     1  UNL1        0.1959
     22 C          68.9041   92.5486   14.0612 C.3     1  UNL1        0.0428
     23 O          67.9460   91.2233   15.4123 O.3     1  UNL1       -0.3751
     24 H          68.9077   91.1065   15.3625 H       1  UNL1        0.2110
     25 C          67.0339   92.9794   13.1575 C.3     1  UNL1        0.4231
     26 F          66.5778   93.8574   12.0301 F       1  UNL1       -0.1673
     27 F          66.2355   94.0538   13.8344 F       1  UNL1       -0.1673
     28 F          67.7430   92.0910   12.1788 F       1  UNL1       -0.1673
@<TRIPOS>BOND
     1     1     2    1
     2     2     3   ar
     3     3     4   ar
     4     4     5   ar
     5     5     6   ar
     6     6     7    1
     7     7     8   ar
     8     8     9   ar
     9     9    10   ar
    10    10    15    1
    11    15    16   ar
    12    16    17   ar
    13    17    18   ar
    14    18    19   ar
    15    19    21    1
    16    21    22    1
    17    21    23    1
    18    21    25    1
    19    25    26    1
    20    25    27    1
    21    25    28    1
    22    19    20   ar
    23    10    11   ar
    24    11    12   ar
    25    12    13    1
    26    13    14    1
    27     6     2   ar
    28    12     7   ar
    29    14     5    1
    30    20    15   ar
    31    23    24    1
@<TRIPOS>MOLECULE
*****
 28 31 0 0 0
SMALL
GASTEIGER

@<TRIPOS>ATOM
      1 C          64.1260   82.7335   14.2065 C.3     1  UNL1        0.0742
      2 C          63.4395   83.1364   12.9351 C.ar    1  UNL1        0.1472
      3 N          62.8858   82.2043   11.8985 N.ar    1  UNL1       -0.1333
      4 N          62.2902   83.0340   10.7999 N.ar    1  UNL1       -0.1333
      5 C          62.4759   84.4788   11.1575 C.ar    1  UNL1        0.1471
      6 N          63.1862   84.5421   12.4771 N.ar    1  UNL1       -0.2810
      7 C          63.5105   85.8717   13.0913 C.ar    1  UNL1        0.0622
      8 C          64.2208   85.9349   14.4109 C.ar    1  UNL1        0.0173
      9 C          64.5451   87.2645   15.0250 C.ar    1  UNL1        0.0015
     10 C          64.1592   88.5307   14.3195 C.ar    1  UNL1        0.0013
     11 C          63.4489   88.4674   12.9999 C.ar    1  UNL1       -0.0028
     12 C          63.1246   87.1379   12.3858 C.ar    1  UNL1       -0.0056
     13 C          62.4143   87.0745   11.0661 C.3     1  UNL1        0.0358
     14 C          62.0900   85.7450   10.4520 C.3     1  UNL1        0.0709
     15 C          64.4836   89.8602   14.9337 C.ar    1  UNL1        0.0189
     16 C          63.4654   90.5630   15.7819 C.ar    1  UNL1        0.0988
     17 N          63.7898   91.8925   16.3961 N.ar    1  UNL1       -0.2426
     18 C          65.1323   92.5193   16.1620 C.ar    1  UNL1        0.0971
     19 C          66.1505   91.8164   15.3138 C.ar    1  UNL1        0.0289
     20 C          65.8261   90.4869   14.6997 C.ar    1  UNL1        0.0013
     21 C          67.4931   92.4431   15.0798 C.3     1  UNL1        0.1959
     22 C          68.8356   93.0698   14.8458 C.3     1  UNL1        0.0428
     23 O          67.7793   92.3793   16.5508 O.3     1  UNL1       -0.3751
     24 H          68.7294   92.5045   16.7011 H       1  UNL1        0.2110
     25 C          67.2068   92.5070   13.6087 C.3     1  UNL1        0.4231
     26 F          66.9206   92.5708   12.1377 F       1  UNL1       -0.1673
     27 F          66.0677   93.4770   13.5024 F       1  UNL1       -0.1673
     28 F          68.3096   91.5232   13.3515 F       1  UNL1       -0.1673
@<TRIPOS>BOND
     1     1     2    1
     2     2     3   ar
     3     3     4   ar
     4     4     5   ar
     5     5     6   ar
     6     6     7    1
     7     7     8   ar
     8     8     9   ar
     9     9    10   ar
    10    10    15    1
    11    15    16   ar
    12    16    17   ar
    13    17    18   ar
    14    18    19   ar
    15    19    21    1
    16    21    22    1
    17    21    23    1
    18    21    25    1
    19    25    26    1
    20    25    27    1
    21    25    28    1
    22    19    20   ar
    23    10    11   ar
    24    11    12   ar
    25    12    13    1
    26    13    14    1
    27     6     2   ar
    28    12     7   ar
    29    14     5    1
    30    20    15   ar
    31    23    24    1
@<TRIPOS>MOLECULE
*****
 28 31 0 0 0
SMALL
GASTEIGER

@<TRIPOS>ATOM
      1 C          59.4318   89.4699    7.0586 C.3     1  UNL1        0.0742
      2 C          59.6491   88.1725    7.7794 C.ar    1  UNL1        0.1472
      3 N          58.9645   86.8719    7.4796 N.ar    1  UNL1       -0.1333
      4 N          59.4814   85.8435    8.4415 N.ar    1  UNL1       -0.1333
      5 C          60.4854   86.5085    9.3358 C.ar    1  UNL1        0.1471
      6 N          60.5890   87.9478    8.9266 N.ar    1  UNL1       -0.2810
      7 C          61.5259   88.8681    9.6515 C.ar    1  UNL1        0.0622
      8 C          61.6295   90.3075    9.2423 C.ar    1  UNL1        0.0173
      9 C          62.5663   91.2277    9.9672 C.ar    1  UNL1        0.0015
     10 C          63.3996   90.7085   11.1013 C.ar    1  UNL1        0.0013
     11 C          63.2960   89.2691   11.5105 C.ar    1  UNL1       -0.0028
     12 C          62.3591   88.3490   10.7856 C.ar    1  UNL1       -0.0056
     13 C          62.2555   86.9095   11.1948 C.3     1  UNL1        0.0358
     14 C          61.3186   85.9893   10.4699 C.3     1  UNL1        0.0709
     15 C          64.3364   91.6288   11.8262 C.ar    1  UNL1        0.0189
     16 C          64.6508   91.3912   13.2735 C.ar    1  UNL1        0.0988
     17 N          65.5877   92.3114   13.9984 N.ar    1  UNL1       -0.2426
     18 C          66.2102   93.4693   13.2760 C.ar    1  UNL1        0.0971
     19 C          65.8957   93.7069   11.8286 C.ar    1  UNL1        0.0289
     20 C          64.9589   92.7866   11.1038 C.ar    1  UNL1        0.0013
     21 C          66.5182   94.8647   11.1062 C.3     1  UNL1        0.1959
     22 C          67.1406   96.0226   10.3837 C.3     1  UNL1        0.0428
     23 O          65.9951   95.8005   12.1553 O.3     1  UNL1       -0.3751
     24 H          66.4586   96.6502   12.0908 H       1  UNL1        0.2110
     25 C          67.0413   93.9289   10.0571 C.3     1  UNL1        0.4231
     26 F          67.5644   92.9931    9.0080 F       1  UNL1       -0.1673
     27 F          67.8068   92.9011   10.8365 F       1  UNL1       -0.1673
     28 F          66.3828   94.7548    8.9920 F       1  UNL1       -0.1673
@<TRIPOS>BOND
     1     1     2    1
     2     2     3   ar
     3     3     4   ar
     4     4     5   ar
     5     5     6   ar
     6     6     7    1
     7     7     8   ar
     8     8     9   ar
     9     9    10   ar
    10    10    15    1
    11    15    16   ar
    12    16    17   ar
    13    17    18   ar
    14    18    19   ar
    15    19    21    1
    16    21    22    1
    17    21    23    1
    18    21    25    1
    19    25    26    1
    20    25    27    1
    21    25    28    1
    22    19    20   ar
    23    10    11   ar
    24    11    12   ar
    25    12    13    1
    26    13    14    1
    27     6     2   ar
    28    12     7   ar
    29    14     5    1
    30    20    15   ar
    31    23    24    1
@<TRIPOS>MOLECULE
*****
 28 31 0 0 0
SMALL
GASTEIGER

@<TRIPOS>ATOM
      1 C          59.7085   89.6879    7.1600 C.3     1  UNL1        0.0742
      2 C          59.8678   88.4557    8.0004 C.ar    1  UNL1        0.1472
      3 N          59.1316   87.1618    7.8164 N.ar    1  UNL1       -0.1333
      4 N          59.6001   86.2074    8.8746 N.ar    1  UNL1       -0.1333
      5 C          60.6258   86.9115    9.7125 C.ar    1  UNL1        0.1471
      6 N          60.7912   88.3010    9.1722 N.ar    1  UNL1       -0.2810
      7 C          61.7614   89.2459    9.8171 C.ar    1  UNL1        0.0622
      8 C          61.9269   90.6354    9.2768 C.ar    1  UNL1        0.0173
      9 C          62.8970   91.5802    9.9217 C.ar    1  UNL1        0.0015
     10 C          63.7017   91.1356   11.1070 C.ar    1  UNL1        0.0013
     11 C          63.5363   89.7462   11.6473 C.ar    1  UNL1       -0.0028
     12 C          62.5661   88.8013   11.0024 C.ar    1  UNL1       -0.0056
     13 C          62.4007   87.4118   11.5427 C.3     1  UNL1        0.0358
     14 C          61.4305   86.4669   10.8978 C.3     1  UNL1        0.0709
     15 C          64.6720   92.0806   11.7519 C.ar    1  UNL1        0.0189
     16 C          65.2088   93.2480   10.9781 C.ar    1  UNL1        0.0988
     17 N          66.1790   94.1930   11.6230 N.ar    1  UNL1       -0.2426
     18 C          66.6123   93.9704   13.0417 C.ar    1  UNL1        0.0971
     19 C          66.0754   92.8029   13.8155 C.ar    1  UNL1        0.0289
     20 C          65.1052   91.8580   13.1706 C.ar    1  UNL1        0.0013
     21 C          66.5086   92.5804   15.2343 C.3     1  UNL1        0.1959
     22 C          66.9419   92.3578   16.6530 C.3     1  UNL1        0.0428
     23 O          65.0775   92.6360   15.6800 O.3     1  UNL1       -0.3751
     24 H          65.0030   92.2689   16.5748 H       1  UNL1        0.2110
     25 C          67.9398   92.5247   14.7885 C.3     1  UNL1        0.4231
     26 F          69.3709   92.4691   14.3427 F       1  UNL1       -0.1673
     27 F          67.9917   91.3302   13.8827 F       1  UNL1       -0.1673
     28 F          68.2432   93.7420   15.6108 F       1  UNL1       -0.1673
@<TRIPOS>BOND
     1     1     2    1
     2     2     3   ar
     3     3     4   ar
     4     4     5   ar
     5     5     6   ar
     6     6     7    1
     7     7     8   ar
     8     8     9   ar
     9     9    10   ar
    10    10    15    1
    11    15    16   ar
    12    16    17   ar
    13    17    18   ar
    14    18    19   ar
    15    19    21    1
    16    21    22    1
    17    21    23    1
    18    21    25    1
    19    25    26    1
    20    25    27    1
    21    25    28    1
    22    19    20   ar
    23    10    11   ar
    24    11    12   ar
    25    12    13    1
    26    13    14    1
    27     6     2   ar
    28    12     7   ar
    29    14     5    1
    30    20    15   ar
    31    23    24    1
@<TRIPOS>MOLECULE
*****
 28 31 0 0 0
SMALL
GASTEIGER

@<TRIPOS>ATOM
      1 C          62.7933   80.7265   10.3347 C.3     1  UNL1        0.0742
      2 C          62.7706   80.7926   11.8331 C.ar    1  UNL1        0.1472
      3 N          62.8104   79.6204   12.7681 N.ar    1  UNL1       -0.1333
      4 N          62.7685   80.1459   14.1724 N.ar    1  UNL1       -0.1333
      5 C          62.7028   81.6430   14.1053 C.ar    1  UNL1        0.1471
      6 N          62.7041   82.0426   12.6595 N.ar    1  UNL1       -0.2810
      7 C          62.6445   83.4933   12.2823 C.ar    1  UNL1        0.0622
      8 C          62.6458   83.8929   10.8365 C.ar    1  UNL1        0.0173
      9 C          62.5863   85.3435   10.4594 C.ar    1  UNL1        0.0015
     10 C          62.5255   86.3944   11.5280 C.ar    1  UNL1        0.0013
     11 C          62.5242   85.9947   12.9737 C.ar    1  UNL1       -0.0028
     12 C          62.5837   84.5442   13.3509 C.ar    1  UNL1       -0.0056
     13 C          62.5824   84.1445   14.7967 C.3     1  UNL1        0.0358
     14 C          62.6419   82.6939   15.1739 C.3     1  UNL1        0.0709
     15 C          62.4659   87.8450   11.1507 C.ar    1  UNL1        0.0189
     16 C          61.5316   88.3010   10.0696 C.ar    1  UNL1        0.0988
     17 N          61.4720   89.7517    9.6923 N.ar    1  UNL1       -0.2426
     18 C          62.3469   90.7462   10.3963 C.ar    1  UNL1        0.0971
     19 C          63.2813   90.2900   11.4775 C.ar    1  UNL1        0.0289
     20 C          63.3408   88.8395   11.8547 C.ar    1  UNL1        0.0013
     21 C          64.1561   91.2846   12.1815 C.3     1  UNL1        0.1959
     22 C          65.0309   92.2791   12.8855 C.3     1  UNL1        0.0428
     23 O          64.4355   91.9643   10.8740 O.3     1  UNL1       -0.3751
     24 H          64.8097   92.8437   11.0402 H       1  UNL1        0.2110
     25 C          63.8767   90.6048   13.4891 C.3     1  UNL1        0.4231
     26 F          63.5972   89.9250   14.7967 F       1  UNL1       -0.1673
     27 F          62.3807   90.5044   13.5337 F       1  UNL1       -0.1673
     28 F          65.3488   90.5386   13.7694 F       1  UNL1       -0.1673
@<TRIPOS>BOND
     1     1     2    1
     2     2     3   ar
     3     3     4   ar
     4     4     5   ar
     5     5     6   ar
     6     6     7    1
     7     7     8   ar
     8     8     9   ar
     9     9    10   ar
    10    10    15    1
    11    15    16   ar
    12    16    17   ar
    13    17    18   ar
    14    18    19   ar
    15    19    21    1
    16    21    22    1
    17    21    23    1
    18    21    25    1
    19    25    26    1
    20    25    27    1
    21    25    28    1
    22    19    20   ar
    23    10    11   ar
    24    11    12   ar
    25    12    13    1
    26    13    14    1
    27     6     2   ar
    28    12     7   ar
    29    14     5    1
    30    20    15   ar
    31    23    24    1
@<TRIPOS>MOLECULE
*****
 28 31 0 0 0
SMALL
GASTEIGER

@<TRIPOS>ATOM
      1 C          64.2222   82.9019   15.8935 C.3     1  UNL1        0.0742
      2 C          63.5527   82.6506   14.5749 C.ar    1  UNL1        0.1472
      3 N          63.0769   81.3219   14.0667 N.ar    1  UNL1       -0.1333
      4 N          62.4716   81.5340   12.7108 N.ar    1  UNL1       -0.1333
      5 C          62.5732   82.9938   12.3810 C.ar    1  UNL1        0.1471
      6 N          63.2413   83.6838   13.5331 N.ar    1  UNL1       -0.2810
      7 C          63.4800   85.1640   13.4847 C.ar    1  UNL1        0.0622
      8 C          64.1481   85.8540   14.6368 C.ar    1  UNL1        0.0173
      9 C          64.3867   87.3341   14.5883 C.ar    1  UNL1        0.0015
     10 C          63.9572   88.1241   13.3877 C.ar    1  UNL1        0.0013
     11 C          63.2890   87.4341   12.2357 C.ar    1  UNL1       -0.0028
     12 C          63.0504   85.9540   12.2841 C.ar    1  UNL1       -0.0056
     13 C          62.3822   85.2639   11.1320 C.3     1  UNL1        0.0358
     14 C          62.1436   83.7838   11.1804 C.3     1  UNL1        0.0709
     15 C          64.1958   89.6043   13.3393 C.ar    1  UNL1        0.0189
     16 C          63.4729   90.4480   12.3316 C.ar    1  UNL1        0.0988
     17 N          63.7115   91.9281   12.2832 N.ar    1  UNL1       -0.2426
     18 C          64.6731   92.5645   13.2425 C.ar    1  UNL1        0.0971
     19 C          65.3961   91.7208   14.2503 C.ar    1  UNL1        0.0289
     20 C          65.1574   90.2407   14.2987 C.ar    1  UNL1        0.0013
     21 C          66.3577   92.3572   15.2096 C.3     1  UNL1        0.1959
     22 C          67.3193   92.9936   16.1689 C.3     1  UNL1        0.0428
     23 O          65.2153   92.7305   16.1071 O.3     1  UNL1       -0.3751
     24 H          65.5565   92.9649   16.9843 H       1  UNL1        0.2110
     25 C          67.5001   91.9838   14.3121 C.3     1  UNL1        0.4231
     26 F          68.6425   91.6105   13.4146 F       1  UNL1       -0.1673
     27 F          67.2713   92.8001   13.0746 F       1  UNL1       -0.1673
     28 F          68.0209   91.0494   15.3636 F       1  UNL1       -0.1673
@<TRIPOS>BOND
     1     1     2    1
     2     2     3   ar
     3     3     4   ar
     4     4     5   ar
     5     5     6   ar
     6     6     7    1
     7     7     8   ar
     8     8     9   ar
     9     9    10   ar
    10    10    15    1
    11    15    16   ar
    12    16    17   ar
    13    17    18   ar
    14    18    19   ar
    15    19    21    1
    16    21    22    1
    17    21    23    1
    18    21    25    1
    19    25    26    1
    20    25    27    1
    21    25    28    1
    22    19    20   ar
    23    10    11   ar
    24    11    12   ar
    25    12    13    1
    26    13    14    1
    27     6     2   ar
    28    12     7   ar
    29    14     5    1
    30    20    15   ar
    31    23    24    1
