@<TRIPOS>MOLECULE
*****
 32 35 0 0 0
SMALL
GASTEIGER

@<TRIPOS>ATOM
      1 N          61.6372   89.1880   11.7631 N.am    1  UNL1       -0.2863
      2 C          62.7551   89.6009   12.6740 C.2     1  UNL1        0.3047
      3 O          63.9040   88.6688   12.9217 O.2     1  UNL1       -0.2525
      4 N          62.7241   90.9459   13.3374 N.am    1  UNL1       -0.2683
      5 H          60.8832   89.7998   11.6005 H       1  UNL1        0.1512
      6 H          61.9701   91.5577   13.1749 H       1  UNL1        0.1564
      7 C          62.4304   85.3594   11.0833 C.3     1  UNL1        0.1351
      8 C          62.3995   86.7044   11.7467 C.3     1  UNL1        0.0642
      9 C          61.6682   87.8430   11.0997 C.3     1  UNL1        0.1020
     10 C          60.9678   87.6367    9.7894 C.ar    1  UNL1        0.0319
     11 C          60.2365   88.7754    9.1424 C.ar    1  UNL1        0.0005
     12 C          59.5362   88.5691    7.8321 C.ar    1  UNL1        0.0022
     13 C          59.5672   87.2241    7.1688 C.ar    1  UNL1        0.0328
     14 C          60.2984   86.0854    7.8157 C.ar    1  UNL1        0.1735
     15 F          60.3294   84.7404    7.1524 F       1  UNL1       -0.2010
     16 C          60.9988   86.2917    9.1260 C.ar    1  UNL1        0.1629
     17 O          61.7301   85.1530    9.7730 O.3     1  UNL1       -0.4805
     18 C          63.9823   83.5241   10.0964 C.3     1  UNL1        0.0037
     19 C          62.7422   83.9114   10.8465 C.3     1  UNL1        0.0401
     20 C          63.2391   85.0628   12.3114 C.3     1  UNL1        0.0401
     21 C          62.6024   84.3693   13.4792 C.3     1  UNL1        0.0037
     22 C          63.8420   91.3588   14.2484 C.ar    1  UNL1        0.0516
     23 C          63.6882   91.2218   15.7342 C.ar    1  UNL1        0.0147
     24 C          64.8061   91.6347   16.6451 C.ar    1  UNL1        0.0013
     25 C          66.0778   92.1845   16.0703 C.ar    1  UNL1        0.0016
     26 C          66.2317   92.3214   14.5845 C.ar    1  UNL1        0.0204
     27 C          67.5034   92.8712   14.0097 C.ar    1  UNL1        0.0984
     28 N          67.6572   93.0081   12.5239 N.ar    1  UNL1       -0.2481
     29 C          66.5393   92.5953   11.6129 C.ar    1  UNL1        0.0594
     30 C          66.6932   92.7322   10.1271 C.3     1  UNL1        0.0521
     31 C          65.2676   92.0455   12.1877 C.ar    1  UNL1        0.0160
     32 C          65.1138   91.9085   13.6736 C.ar    1  UNL1        0.0162
@<TRIPOS>BOND
     1    18    19    1
     2    19     7    1
     3     7    20    1
     4    20    21    1
     5     7     8    1
     6     8     9    1
     7     9     1    1
     8     1     2   am
     9     2     3    2
    10     2     4   am
    11     4    22    1
    12    22    23   ar
    13    23    24   ar
    14    24    25   ar
    15    25    26   ar
    16    26    27   ar
    17    27    28   ar
    18    28    29   ar
    19    29    30    1
    20    29    31   ar
    21    31    32   ar
    22     9    10    1
    23    10    11   ar
    24    11    12   ar
    25    12    13   ar
    26    13    14   ar
    27    14    15    1
    28    14    16   ar
    29    16    17    1
    30    17     7    1
    31    32    22   ar
    32    16    10   ar
    33    32    26   ar
    34     1     5    1
    35     4     6    1
@<TRIPOS>MOLECULE
*****
 32 35 0 0 0
SMALL
GASTEIGER

@<TRIPOS>ATOM
      1 N          62.4768   89.1238   12.4474 N.am    1  UNL1       -0.2863
      2 C          62.9685   87.7105   12.3438 C.2     1  UNL1        0.3047
      3 O          64.2570   87.3146   13.0018 O.2     1  UNL1       -0.2525
      4 N          62.1717   86.6932   11.5821 N.am    1  UNL1       -0.2683
      5 H          61.6311   89.3837   12.0155 H       1  UNL1        0.1512
      6 H          61.3261   86.9530   11.1502 H       1  UNL1        0.1564
      7 C          64.0753   91.1376   15.4705 C.3     1  UNL1        0.1351
      8 C          63.2785   90.1203   14.7089 C.3     1  UNL1        0.0642
      9 C          63.2735   90.1412   13.2091 C.3     1  UNL1        0.1020
     10 C          64.0654   91.1796   12.4708 C.ar    1  UNL1        0.0319
     11 C          64.0604   91.2005   10.9710 C.ar    1  UNL1        0.0005
     12 C          64.8522   92.2388   10.2329 C.ar    1  UNL1        0.0022
     13 C          65.6490   93.2562   10.9945 C.ar    1  UNL1        0.0328
     14 C          65.6539   93.2352   12.4943 C.ar    1  UNL1        0.1735
     15 F          66.4507   94.2526   13.2560 F       1  UNL1       -0.2010
     16 C          64.8621   92.1969   13.2325 C.ar    1  UNL1        0.1629
     17 O          64.8671   92.1760   14.7324 O.3     1  UNL1       -0.4805
     18 C          66.0130   92.5357   16.4908 C.3     1  UNL1        0.0037
     19 C          64.6686   91.8845   16.6281 C.3     1  UNL1        0.0401
     20 C          63.4895   90.3587   16.6107 C.3     1  UNL1        0.0401
     21 C          63.2182   88.8916   16.4557 C.3     1  UNL1        0.0037
     22 C          62.6635   85.2798   11.4785 C.ar    1  UNL1        0.0516
     23 C          62.9670   84.6880   10.1341 C.ar    1  UNL1        0.0147
     24 C          63.4588   83.2747   10.0306 C.ar    1  UNL1        0.0013
     25 C          63.6470   82.4532   11.2715 C.ar    1  UNL1        0.0016
     26 C          63.3435   83.0451   12.6159 C.ar    1  UNL1        0.0204
     27 C          63.5317   82.2236   13.8568 C.ar    1  UNL1        0.0984
     28 N          63.2282   82.8155   15.2012 N.ar    1  UNL1       -0.2481
     29 C          62.7364   84.2288   15.3048 C.ar    1  UNL1        0.0594
     30 C          62.4329   84.8207   16.6492 C.3     1  UNL1        0.0521
     31 C          62.5482   85.0503   14.0639 C.ar    1  UNL1        0.0160
     32 C          62.8517   84.4584   12.7194 C.ar    1  UNL1        0.0162
@<TRIPOS>BOND
     1    18    19    1
     2    19     7    1
     3     7    20    1
     4    20    21    1
     5     7     8    1
     6     8     9    1
     7     9     1    1
     8     1     2   am
     9     2     3    2
    10     2     4   am
    11     4    22    1
    12    22    23   ar
    13    23    24   ar
    14    24    25   ar
    15    25    26   ar
    16    26    27   ar
    17    27    28   ar
    18    28    29   ar
    19    29    30    1
    20    29    31   ar
    21    31    32   ar
    22     9    10    1
    23    10    11   ar
    24    11    12   ar
    25    12    13   ar
    26    13    14   ar
    27    14    15    1
    28    14    16   ar
    29    16    17    1
    30    17     7    1
    31    32    22   ar
    32    16    10   ar
    33    32    26   ar
    34     1     5    1
    35     4     6    1
@<TRIPOS>MOLECULE
*****
 32 35 0 0 0
SMALL
GASTEIGER

@<TRIPOS>ATOM
      1 N          62.7233   87.6114   12.5127 N.am    1  UNL1       -0.2863
      2 C          63.5173   88.5102   13.4136 C.2     1  UNL1        0.3047
      3 O          64.6041   87.9383   14.2750 O.2     1  UNL1       -0.2525
      4 N          63.2247   89.9808   13.4532 N.am    1  UNL1       -0.2683
      5 H          62.0101   87.9868   11.9473 H       1  UNL1        0.1512
      6 H          62.5114   90.3562   12.8878 H       1  UNL1        0.1564
      7 C          63.5656   83.9220   13.7080 C.3     1  UNL1        0.1351
      8 C          63.2729   85.3927   13.7476 C.3     1  UNL1        0.0642
      9 C          63.0160   86.1408   12.4731 C.3     1  UNL1        0.1020
     10 C          63.0519   85.4183   11.1590 C.ar    1  UNL1        0.0319
     11 C          62.7950   86.1664    9.8846 C.ar    1  UNL1        0.0005
     12 C          62.8308   85.4440    8.5706 C.ar    1  UNL1        0.0022
     13 C          63.1235   83.9733    8.5310 C.ar    1  UNL1        0.0328
     14 C          63.3804   83.2252    9.8054 C.ar    1  UNL1        0.1735
     15 F          63.6731   81.7545    9.7659 F       1  UNL1       -0.2010
     16 C          63.3445   83.9477   11.1195 C.ar    1  UNL1        0.1629
     17 O          63.6014   83.1995   12.3940 O.3     1  UNL1       -0.4805
     18 C          62.9962   81.3887   13.7979 C.3     1  UNL1        0.0037
     19 C          63.8842   82.5350   14.1819 C.3     1  UNL1        0.0401
     20 C          63.6404   84.1628   15.1867 C.3     1  UNL1        0.0401
     21 C          62.4175   84.5981   15.9385 C.3     1  UNL1        0.0037
     22 C          64.0187   90.8796   14.3542 C.ar    1  UNL1        0.0516
     23 C          63.8017   90.8359   15.8377 C.ar    1  UNL1        0.0147
     24 C          64.5958   91.7346   16.7386 C.ar    1  UNL1        0.0013
     25 C          65.6069   92.6771   16.1559 C.ar    1  UNL1        0.0016
     26 C          65.8239   92.7208   14.6724 C.ar    1  UNL1        0.0204
     27 C          66.8350   93.6633   14.0898 C.ar    1  UNL1        0.0984
     28 N          67.0520   93.7070   12.6062 N.ar    1  UNL1       -0.2481
     29 C          66.2579   92.8082   11.7052 C.ar    1  UNL1        0.0594
     30 C          66.4749   92.8519   10.2217 C.3     1  UNL1        0.0521
     31 C          65.2468   91.8658   12.2879 C.ar    1  UNL1        0.0160
     32 C          65.0298   91.8221   13.7715 C.ar    1  UNL1        0.0162
@<TRIPOS>BOND
     1    18    19    1
     2    19     7    1
     3     7    20    1
     4    20    21    1
     5     7     8    1
     6     8     9    1
     7     9     1    1
     8     1     2   am
     9     2     3    2
    10     2     4   am
    11     4    22    1
    12    22    23   ar
    13    23    24   ar
    14    24    25   ar
    15    25    26   ar
    16    26    27   ar
    17    27    28   ar
    18    28    29   ar
    19    29    30    1
    20    29    31   ar
    21    31    32   ar
    22     9    10    1
    23    10    11   ar
    24    11    12   ar
    25    12    13   ar
    26    13    14   ar
    27    14    15    1
    28    14    16   ar
    29    16    17    1
    30    17     7    1
    31    32    22   ar
    32    16    10   ar
    33    32    26   ar
    34     1     5    1
    35     4     6    1
@<TRIPOS>MOLECULE
*****
 32 35 0 0 0
SMALL
GASTEIGER

@<TRIPOS>ATOM
      1 N          62.5262   87.2337   12.0347 N.am    1  UNL1       -0.2863
      2 C          63.2525   88.0862   13.0326 C.2     1  UNL1        0.3047
      3 O          64.2984   87.4773   13.9189 O.2     1  UNL1       -0.2525
      4 N          62.9330   89.5475   13.1442 N.am    1  UNL1       -0.2683
      5 H          61.8398   87.6334   11.4530 H       1  UNL1        0.1512
      6 H          62.2466   89.9471   12.5625 H       1  UNL1        0.1564
      7 C          63.5520   83.7271   10.4851 C.3     1  UNL1        0.1351
      8 C          63.2325   85.1885   10.5967 C.3     1  UNL1        0.0642
      9 C          62.8457   85.7724   11.9231 C.3     1  UNL1        0.1020
     10 C          62.7784   84.8951   13.1379 C.ar    1  UNL1        0.0319
     11 C          62.3916   85.4790   14.4643 C.ar    1  UNL1        0.0005
     12 C          62.3243   84.6017   15.6790 C.ar    1  UNL1        0.0022
     13 C          62.6437   83.1403   15.5674 C.ar    1  UNL1        0.0328
     14 C          63.0305   82.5564   14.2410 C.ar    1  UNL1        0.1735
     15 F          63.3500   81.0950   14.1294 F       1  UNL1       -0.2010
     16 C          63.0979   83.4337   13.0263 C.ar    1  UNL1        0.1629
     17 O          63.4847   82.8498   11.6998 O.3     1  UNL1       -0.4805
     18 C          63.3479   81.1383   10.4033 C.3     1  UNL1        0.0037
     19 C          63.9419   82.4119    9.8784 C.3     1  UNL1        0.0401
     20 C          63.7547   84.1477    9.0596 C.3     1  UNL1        0.0401
     21 C          62.9569   85.2843    8.4923 C.3     1  UNL1        0.0037
     22 C          63.6594   90.3999   14.1421 C.ar    1  UNL1        0.0516
     23 C          63.3688   90.2531   15.6063 C.ar    1  UNL1        0.0147
     24 C          64.0952   91.1055   16.6042 C.ar    1  UNL1        0.0013
     25 C          65.1121   92.1047   16.1378 C.ar    1  UNL1        0.0016
     26 C          65.4027   92.2515   14.6736 C.ar    1  UNL1        0.0204
     27 C          66.4196   93.2507   14.2073 C.ar    1  UNL1        0.0984
     28 N          66.7102   93.3975   12.7430 N.ar    1  UNL1       -0.2481
     29 C          65.9838   92.5450   11.7451 C.ar    1  UNL1        0.0594
     30 C          66.2744   92.6918   10.2809 C.3     1  UNL1        0.0521
     31 C          64.9669   91.5458   12.2115 C.ar    1  UNL1        0.0160
     32 C          64.6763   91.3991   13.6758 C.ar    1  UNL1        0.0162
@<TRIPOS>BOND
     1    18    19    1
     2    19     7    1
     3     7    20    1
     4    20    21    1
     5     7     8    1
     6     8     9    1
     7     9     1    1
     8     1     2   am
     9     2     3    2
    10     2     4   am
    11     4    22    1
    12    22    23   ar
    13    23    24   ar
    14    24    25   ar
    15    25    26   ar
    16    26    27   ar
    17    27    28   ar
    18    28    29   ar
    19    29    30    1
    20    29    31   ar
    21    31    32   ar
    22     9    10    1
    23    10    11   ar
    24    11    12   ar
    25    12    13   ar
    26    13    14   ar
    27    14    15    1
    28    14    16   ar
    29    16    17    1
    30    17     7    1
    31    32    22   ar
    32    16    10   ar
    33    32    26   ar
    34     1     5    1
    35     4     6    1
@<TRIPOS>MOLECULE
*****
 32 35 0 0 0
SMALL
GASTEIGER

@<TRIPOS>ATOM
      1 N          62.4744   89.0430   12.0175 N.am    1  UNL1       -0.2863
      2 C          62.9483   87.6211   12.0746 C.2     1  UNL1        0.3047
      3 O          64.2670   87.2949   12.7109 O.2     1  UNL1       -0.2525
      4 N          62.1036   86.5251   11.4954 N.am    1  UNL1       -0.2683
      5 H          61.6089   89.2571   11.5999 H       1  UNL1        0.1512
      6 H          61.2381   86.7392   11.0778 H       1  UNL1        0.1564
      7 C          64.8799   92.1896   12.2672 C.3     1  UNL1        0.1351
      8 C          64.0352   91.0937   11.6881 C.3     1  UNL1        0.0642
      9 C          63.3191   90.1390   12.5967 C.3     1  UNL1        0.1020
     10 C          63.4477   90.2801   14.0845 C.ar    1  UNL1        0.0319
     11 C          62.7316   89.3254   14.9931 C.ar    1  UNL1        0.0005
     12 C          62.8602   89.4665   16.4809 C.ar    1  UNL1        0.0022
     13 C          63.7049   90.5624   17.0600 C.ar    1  UNL1        0.0328
     14 C          64.4210   91.5172   16.1514 C.ar    1  UNL1        0.1735
     15 F          65.2657   92.6131   16.7306 F       1  UNL1       -0.2010
     16 C          64.2924   91.3760   14.6637 C.ar    1  UNL1        0.1629
     17 O          65.0085   92.3308   13.7550 O.3     1  UNL1       -0.4805
     18 C          66.4937   93.7106   13.6210 C.3     1  UNL1        0.0037
     19 C          65.7896   93.3801   12.3383 C.3     1  UNL1        0.0401
     20 C          65.0672   92.4619   10.8041 C.3     1  UNL1        0.0401
     21 C          66.4360   92.7551   10.2650 C.3     1  UNL1        0.0037
     22 C          62.5775   85.1031   11.5525 C.ar    1  UNL1        0.0516
     23 C          62.8835   84.3630   10.2843 C.ar    1  UNL1        0.0147
     24 C          63.3574   82.9410   10.3414 C.ar    1  UNL1        0.0013
     25 C          63.5255   82.2591   11.6669 C.ar    1  UNL1        0.0016
     26 C          63.2195   82.9992   12.9352 C.ar    1  UNL1        0.0204
     27 C          63.3875   82.3173   14.2606 C.ar    1  UNL1        0.0984
     28 N          63.0815   83.0574   15.5289 N.ar    1  UNL1       -0.2481
     29 C          62.6076   84.4795   15.4718 C.ar    1  UNL1        0.0594
     30 C          62.3016   85.2196   16.7401 C.3     1  UNL1        0.0521
     31 C          62.4396   85.1614   14.1463 C.ar    1  UNL1        0.0160
     32 C          62.7455   84.4212   12.8780 C.ar    1  UNL1        0.0162
@<TRIPOS>BOND
     1    18    19    1
     2    19     7    1
     3     7    20    1
     4    20    21    1
     5     7     8    1
     6     8     9    1
     7     9     1    1
     8     1     2   am
     9     2     3    2
    10     2     4   am
    11     4    22    1
    12    22    23   ar
    13    23    24   ar
    14    24    25   ar
    15    25    26   ar
    16    26    27   ar
    17    27    28   ar
    18    28    29   ar
    19    29    30    1
    20    29    31   ar
    21    31    32   ar
    22     9    10    1
    23    10    11   ar
    24    11    12   ar
    25    12    13   ar
    26    13    14   ar
    27    14    15    1
    28    14    16   ar
    29    16    17    1
    30    17     7    1
    31    32    22   ar
    32    16    10   ar
    33    32    26   ar
    34     1     5    1
    35     4     6    1
@<TRIPOS>MOLECULE
*****
 32 35 0 0 0
SMALL
GASTEIGER

@<TRIPOS>ATOM
      1 N          61.6020   88.8254   12.0745 N.am    1  UNL1       -0.2863
      2 C          62.7706   89.3971   12.8211 C.2     1  UNL1        0.3047
      3 O          64.1265   88.7700   12.6859 O.2     1  UNL1       -0.2525
      4 N          62.5833   90.5960   13.7030 N.am    1  UNL1       -0.2683
      5 H          60.7121   89.2370   12.1633 H       1  UNL1        0.1512
      6 H          61.6934   91.0076   13.7918 H       1  UNL1        0.1564
      7 C          61.4473   86.4390    8.9073 C.3     1  UNL1        0.1351
      8 C          61.2600   87.6379    9.7892 C.3     1  UNL1        0.0642
      9 C          61.7892   87.6266   11.1926 C.3     1  UNL1        0.1020
     10 C          62.5058   86.4164   11.7143 C.ar    1  UNL1        0.0319
     11 C          63.0350   86.4051   13.1178 C.ar    1  UNL1        0.0005
     12 C          63.7515   85.1949   13.6393 C.ar    1  UNL1        0.0022
     13 C          63.9388   83.9960   12.7575 C.ar    1  UNL1        0.0328
     14 C          63.4095   84.0074   11.3540 C.ar    1  UNL1        0.1735
     15 F          63.5968   82.8085   10.4721 F       1  UNL1       -0.2010
     16 C          62.6930   85.2175   10.8324 C.ar    1  UNL1        0.1629
     17 O          62.1638   85.2289    9.4289 O.3     1  UNL1       -0.4805
     18 C          62.6192   84.8890    7.1827 C.3     1  UNL1        0.0037
     19 C          61.3772   85.5537    7.6985 C.3     1  UNL1        0.0401
     20 C          60.7064   87.3418    7.9659 C.3     1  UNL1        0.0401
     21 C          59.2594   87.0860    7.6644 C.3     1  UNL1        0.0037
     22 C          63.7520   91.1677   14.4497 C.ar    1  UNL1        0.0516
     23 C          63.8181   91.0494   15.9435 C.ar    1  UNL1        0.0147
     24 C          64.9868   91.6211   16.6901 C.ar    1  UNL1        0.0013
     25 C          66.0893   92.3111   15.9428 C.ar    1  UNL1        0.0016
     26 C          66.0231   92.4294   14.4490 C.ar    1  UNL1        0.0204
     27 C          67.1256   93.1195   13.7017 C.ar    1  UNL1        0.0984
     28 N          67.0594   93.2378   12.2079 N.ar    1  UNL1       -0.2481
     29 C          65.8907   92.6661   11.4612 C.ar    1  UNL1        0.0594
     30 C          65.8246   92.7844    9.9674 C.3     1  UNL1        0.0521
     31 C          64.7883   91.9760   12.2085 C.ar    1  UNL1        0.0160
     32 C          64.8545   91.8577   13.7024 C.ar    1  UNL1        0.0162
@<TRIPOS>BOND
     1    18    19    1
     2    19     7    1
     3     7    20    1
     4    20    21    1
     5     7     8    1
     6     8     9    1
     7     9     1    1
     8     1     2   am
     9     2     3    2
    10     2     4   am
    11     4    22    1
    12    22    23   ar
    13    23    24   ar
    14    24    25   ar
    15    25    26   ar
    16    26    27   ar
    17    27    28   ar
    18    28    29   ar
    19    29    30    1
    20    29    31   ar
    21    31    32   ar
    22     9    10    1
    23    10    11   ar
    24    11    12   ar
    25    12    13   ar
    26    13    14   ar
    27    14    15    1
    28    14    16   ar
    29    16    17    1
    30    17     7    1
    31    32    22   ar
    32    16    10   ar
    33    32    26   ar
    34     1     5    1
    35     4     6    1
@<TRIPOS>MOLECULE
*****
 32 35 0 0 0
SMALL
GASTEIGER

@<TRIPOS>ATOM
      1 N          62.6014   89.2008   12.8858 N.am    1  UNL1       -0.2863
      2 C          62.9960   87.7654   13.0696 C.2     1  UNL1        0.3047
      3 O          64.2516   87.4223   13.8152 O.2     1  UNL1       -0.2525
      4 N          62.1351   86.6730   12.5079 N.am    1  UNL1       -0.2683
      5 H          61.7773   89.4260   12.3965 H       1  UNL1        0.1512
      6 H          61.3110   86.8982   12.0185 H       1  UNL1        0.1564
      7 C          64.4878   91.5223   15.4939 C.3     1  UNL1        0.1351
      8 C          63.6269   90.4299   14.9322 C.3     1  UNL1        0.0642
      9 C          63.4623   90.2932   13.4475 C.3     1  UNL1        0.1020
     10 C          64.1586   91.2489   12.5246 C.ar    1  UNL1        0.0319
     11 C          63.9940   91.1122   11.0399 C.ar    1  UNL1        0.0005
     12 C          64.6903   92.0679   10.1170 C.ar    1  UNL1        0.0022
     13 C          65.5513   93.1602   10.6788 C.ar    1  UNL1        0.0328
     14 C          65.7158   93.2969   12.1634 C.ar    1  UNL1        0.1735
     15 F          66.5768   94.3893   12.7251 F       1  UNL1       -0.2010
     16 C          65.0195   92.3413   13.0863 C.ar    1  UNL1        0.1629
     17 O          65.1841   92.4779   14.5710 O.3     1  UNL1       -0.4805
     18 C          66.6369   92.7386   16.3015 C.3     1  UNL1        0.0037
     19 C          65.1918   92.3870   16.4971 C.3     1  UNL1        0.0401
     20 C          64.0359   90.8669   16.7652 C.3     1  UNL1        0.0401
     21 C          63.2503   89.5901   16.7127 C.3     1  UNL1        0.0037
     22 C          62.5298   85.2376   12.6917 C.ar    1  UNL1        0.0516
     23 C          62.5490   84.6350   14.0652 C.ar    1  UNL1        0.0147
     24 C          62.9436   83.1996   14.2490 C.ar    1  UNL1        0.0013
     25 C          63.3191   82.3668   13.0593 C.ar    1  UNL1        0.0016
     26 C          63.2999   82.9693   11.6858 C.ar    1  UNL1        0.0204
     27 C          63.6754   82.1365   10.4961 C.ar    1  UNL1        0.0984
     28 N          63.6562   82.7391    9.1226 N.ar    1  UNL1       -0.2481
     29 C          63.2615   84.1745    8.9388 C.ar    1  UNL1        0.0594
     30 C          63.2424   84.7771    7.5653 C.3     1  UNL1        0.0521
     31 C          62.8861   85.0074   10.1285 C.ar    1  UNL1        0.0160
     32 C          62.9053   84.4047   11.5020 C.ar    1  UNL1        0.0162
@<TRIPOS>BOND
     1    18    19    1
     2    19     7    1
     3     7    20    1
     4    20    21    1
     5     7     8    1
     6     8     9    1
     7     9     1    1
     8     1     2   am
     9     2     3    2
    10     2     4   am
    11     4    22    1
    12    22    23   ar
    13    23    24   ar
    14    24    25   ar
    15    25    26   ar
    16    26    27   ar
    17    27    28   ar
    18    28    29   ar
    19    29    30    1
    20    29    31   ar
    21    31    32   ar
    22     9    10    1
    23    10    11   ar
    24    11    12   ar
    25    12    13   ar
    26    13    14   ar
    27    14    15    1
    28    14    16   ar
    29    16    17    1
    30    17     7    1
    31    32    22   ar
    32    16    10   ar
    33    32    26   ar
    34     1     5    1
    35     4     6    1
@<TRIPOS>MOLECULE
*****
 32 35 0 0 0
SMALL
GASTEIGER

@<TRIPOS>ATOM
      1 N          59.5915   92.3253   -1.3219 N.am    1  UNL1       -0.2863
      2 C          58.5161   93.3012   -1.6971 C.2     1  UNL1        0.3047
      3 O          58.7553   94.7746   -1.5487 O.2     1  UNL1       -0.2525
      4 N          57.2014   92.8039   -2.2209 N.am    1  UNL1       -0.2683
      5 H          59.4344   91.3583   -1.4193 H       1  UNL1        0.1512
      6 H          57.0443   91.8369   -2.3183 H       1  UNL1        0.1564
      7 C          62.5974   93.0789    1.1574 C.3     1  UNL1        0.1351
      8 C          61.2827   92.5816    0.6337 C.3     1  UNL1        0.0642
      9 C          60.9062   92.8226   -0.7982 C.3     1  UNL1        0.1020
     10 C          61.8444   93.5609   -1.7063 C.ar    1  UNL1        0.0319
     11 C          61.4679   93.8018   -3.1382 C.ar    1  UNL1        0.0005
     12 C          62.4061   94.5401   -4.0463 C.ar    1  UNL1        0.0022
     13 C          63.7208   95.0374   -3.5226 C.ar    1  UNL1        0.0328
     14 C          64.0973   94.7965   -2.0907 C.ar    1  UNL1        0.1735
     15 F          65.4120   95.2938   -1.5670 F       1  UNL1       -0.2010
     16 C          63.1591   94.0582   -1.1826 C.ar    1  UNL1        0.1629
     17 O          63.5355   93.8172    0.2493 O.3     1  UNL1       -0.4805
     18 C          64.4730   94.6490    2.0332 C.3     1  UNL1        0.0037
     19 C          63.7218   93.3529    2.1115 C.3     1  UNL1        0.0401
     20 C          62.0497   92.4358    2.3969 C.3     1  UNL1        0.0401
     21 C          62.8850   91.4544    3.1644 C.3     1  UNL1        0.0037
     22 C          56.1259   93.7800   -2.5961 C.ar    1  UNL1        0.0516
     23 C          55.1942   94.3095   -1.5467 C.ar    1  UNL1        0.0147
     24 C          54.1188   95.2855   -1.9220 C.ar    1  UNL1        0.0013
     25 C          53.9752   95.7321   -3.3468 C.ar    1  UNL1        0.0016
     26 C          54.9069   95.2026   -4.3962 C.ar    1  UNL1        0.0204
     27 C          54.7633   95.6491   -5.8210 C.ar    1  UNL1        0.0984
     28 N          55.6951   95.1196   -6.8705 N.ar    1  UNL1       -0.2481
     29 C          56.7705   94.1435   -6.4952 C.ar    1  UNL1        0.0594
     30 C          57.7023   93.6140   -7.5446 C.3     1  UNL1        0.0521
     31 C          56.9141   93.6970   -5.0704 C.ar    1  UNL1        0.0160
     32 C          55.9823   94.2265   -4.0209 C.ar    1  UNL1        0.0162
@<TRIPOS>BOND
     1    18    19    1
     2    19     7    1
     3     7    20    1
     4    20    21    1
     5     7     8    1
     6     8     9    1
     7     9     1    1
     8     1     2   am
     9     2     3    2
    10     2     4   am
    11     4    22    1
    12    22    23   ar
    13    23    24   ar
    14    24    25   ar
    15    25    26   ar
    16    26    27   ar
    17    27    28   ar
    18    28    29   ar
    19    29    30    1
    20    29    31   ar
    21    31    32   ar
    22     9    10    1
    23    10    11   ar
    24    11    12   ar
    25    12    13   ar
    26    13    14   ar
    27    14    15    1
    28    14    16   ar
    29    16    17    1
    30    17     7    1
    31    32    22   ar
    32    16    10   ar
    33    32    26   ar
    34     1     5    1
    35     4     6    1
@<TRIPOS>MOLECULE
*****
 32 35 0 0 0
SMALL
GASTEIGER

@<TRIPOS>ATOM
      1 N          62.7678   85.8815    9.2668 N.am    1  UNL1       -0.2863
      2 C          62.6176   84.8994   10.3905 C.2     1  UNL1        0.3047
      3 O          61.5601   85.1091   11.4335 O.2     1  UNL1       -0.2525
      4 N          63.5248   83.7076   10.4713 N.am    1  UNL1       -0.2683
      5 H          63.4619   85.7439    8.5822 H       1  UNL1        0.1512
      6 H          64.2189   83.5700    9.7868 H       1  UNL1        0.1564
      7 C          59.9292   88.3554    8.0129 C.3     1  UNL1        0.1351
      8 C          60.8365   87.1636    8.0937 C.3     1  UNL1        0.0642
      9 C          61.8606   87.0733    9.1859 C.3     1  UNL1        0.1020
     10 C          61.9775   88.1748   10.1974 C.ar    1  UNL1        0.0319
     11 C          63.0015   88.0845   11.2897 C.ar    1  UNL1        0.0005
     12 C          63.1184   89.1860   12.3011 C.ar    1  UNL1        0.0022
     13 C          62.2111   90.3778   12.2203 C.ar    1  UNL1        0.0328
     14 C          61.1871   90.4681   11.1280 C.ar    1  UNL1        0.1735
     15 F          60.2798   91.6599   11.0472 F       1  UNL1       -0.2010
     16 C          61.0702   89.3666   10.1166 C.ar    1  UNL1        0.1629
     17 O          60.0461   89.4569    9.0243 O.3     1  UNL1       -0.4805
     18 C          58.9810   89.9335    6.1797 C.3     1  UNL1        0.0037
     19 C          58.8514   89.2756    7.5215 C.3     1  UNL1        0.0401
     20 C          59.4381   87.5735    6.8308 C.3     1  UNL1        0.0401
     21 C          59.3843   86.0757    6.8922 C.3     1  UNL1        0.0037
     22 C          63.3746   82.7255   11.5952 C.ar    1  UNL1        0.0516
     23 C          62.9860   81.3063   11.3040 C.ar    1  UNL1        0.0147
     24 C          62.8358   80.3242   12.4278 C.ar    1  UNL1        0.0013
     25 C          63.0741   80.7614   13.8428 C.ar    1  UNL1        0.0016
     26 C          63.4626   82.1806   14.1339 C.ar    1  UNL1        0.0204
     27 C          63.7009   82.6178   15.5489 C.ar    1  UNL1        0.0984
     28 N          64.0894   84.0370   15.8400 N.ar    1  UNL1       -0.2481
     29 C          64.2396   85.0191   14.7162 C.ar    1  UNL1        0.0594
     30 C          64.6282   86.4384   15.0074 C.3     1  UNL1        0.0521
     31 C          64.0014   84.5820   13.3012 C.ar    1  UNL1        0.0160
     32 C          63.6128   83.1627   13.0101 C.ar    1  UNL1        0.0162
@<TRIPOS>BOND
     1    18    19    1
     2    19     7    1
     3     7    20    1
     4    20    21    1
     5     7     8    1
     6     8     9    1
     7     9     1    1
     8     1     2   am
     9     2     3    2
    10     2     4   am
    11     4    22    1
    12    22    23   ar
    13    23    24   ar
    14    24    25   ar
    15    25    26   ar
    16    26    27   ar
    17    27    28   ar
    18    28    29   ar
    19    29    30    1
    20    29    31   ar
    21    31    32   ar
    22     9    10    1
    23    10    11   ar
    24    11    12   ar
    25    12    13   ar
    26    13    14   ar
    27    14    15    1
    28    14    16   ar
    29    16    17    1
    30    17     7    1
    31    32    22   ar
    32    16    10   ar
    33    32    26   ar
    34     1     5    1
    35     4     6    1
