@<TRIPOS>MOLECULE
*****
 36 39 0 0 0
SMALL
GASTEIGER

@<TRIPOS>ATOM
      1 O          64.1898   89.4237   15.7423 O.3     1  UNL1       -0.4731
      2 C          63.8904   87.9594   15.6150 C.ar    1  UNL1        0.1681
      3 C          64.2106   87.2365   14.3403 C.ar    1  UNL1        0.0702
      4 C          63.9112   85.7723   14.2129 C.ar    1  UNL1        0.1620
      5 F          64.2314   85.0493   12.9382 F       1  UNL1       -0.2026
      6 C          63.2916   85.0308   15.3602 C.ar    1  UNL1        0.1549
      7 C          62.9714   85.7538   16.6350 C.ar    1  UNL1        0.0553
      8 C          63.2708   87.2180   16.7624 C.ar    1  UNL1        0.1753
      9 F          62.9506   87.9409   18.0370 F       1  UNL1       -0.2009
     10 S          62.9922   83.5666   15.2329 S.O2    1  UNL1        0.0773
     11 O          64.4253   83.2468   15.5397 O.2     1  UNL1       -0.1498
     12 O          61.5592   83.8863   14.9261 O.2     1  UNL1       -0.1498
     13 N          62.6928   82.1022   15.1056 N.pl3   1  UNL1       -0.1925
     14 H          62.4590   81.5763   15.9043 H       1  UNL1        0.1758
     15 C          62.7497   81.4393   13.7612 C.ar    1  UNL1        0.1977
     16 N          63.1890   82.0822   12.4791 N.ar    1  UNL1       -0.1997
     17 C          63.0881   81.0574   11.3884 C.ar    1  UNL1        0.2082
     18 N          62.5864   79.7812   11.9963 N.ar    1  UNL1       -0.1840
     19 S          62.3773   80.0173   13.4629 S.2     1  UNL1        0.0508
     20 C          63.5586   90.4032   14.7979 C.3     1  UNL1        0.2058
     21 C          63.2575   89.9964   13.3859 C.3     1  UNL1        0.0514
     22 C          65.7846   92.9576   11.6567 C.3     1  UNL1        0.0540
     23 C          65.6691   92.3904   13.0405 C.3     1  UNL1        0.0160
     24 C          64.6497   91.3297   13.3336 C.3     1  UNL1        0.0055
     25 C          63.7459   90.8363   12.2430 C.3     1  UNL1        0.0226
     26 C          63.8614   91.4035   10.8592 C.3     1  UNL1        0.0055
     27 C          64.8808   92.4641   10.5661 C.3     1  UNL1        0.0160
     28 C          62.6724   90.0512   11.5492 C.ar    1  UNL1       -0.0227
     29 C          61.5291   90.7640   10.8898 C.ar    1  UNL1       -0.0043
     30 C          60.4557   89.9789   10.1961 C.ar    1  UNL1       -0.0003
     31 C          60.5255   88.4809   10.1617 C.ar    1  UNL1       -0.0000
     32 C          61.6688   87.7681   10.8211 C.ar    1  UNL1       -0.0003
     33 C          62.7422   88.5532   11.5148 C.ar    1  UNL1       -0.0043
     34 C          66.3608   95.3962   10.9703 C.3     1  UNL1        0.0858
     35 N          66.8040   94.0182   11.3636 N.3     1  UNL1       -0.2974
     36 H          67.3726   94.1205   12.2042 H       1  UNL1        0.1232
@<TRIPOS>BOND
     1    34    35    1
     2    22    35    1
     3    22    23    1
     4    23    24    1
     5    24    25    1
     6    25    21    1
     7    21    20    1
     8    20     1    1
     9     1     2    1
    10     2     3   ar
    11     3     4   ar
    12     4     5    1
    13     4     6   ar
    14     6    10    1
    15    10    11    2
    16    10    12    2
    17    10    13    1
    18    13    15    1
    19    15    16   ar
    20    16    17   ar
    21    17    18   ar
    22    18    19   ar
    23     6     7   ar
    24     7     8   ar
    25     8     9    1
    26    25    28    1
    27    28    29   ar
    28    29    30   ar
    29    30    31   ar
    30    31    32   ar
    31    32    33   ar
    32    25    26    1
    33    26    27    1
    34    27    22    1
    35     8     2   ar
    36    33    28   ar
    37    19    15   ar
    38    35    36    1
    39    13    14    1
@<TRIPOS>MOLECULE
*****
 36 39 0 0 0
SMALL
GASTEIGER

@<TRIPOS>ATOM
      1 O          63.5043   88.2978   14.3490 O.3     1  UNL1       -0.4731
      2 C          64.1715   89.5650   13.9033 C.ar    1  UNL1        0.1681
      3 C          65.3654   90.0858   14.6472 C.ar    1  UNL1        0.0702
      4 C          66.0326   91.3531   14.2015 C.ar    1  UNL1        0.1620
      5 F          67.2267   91.8738   14.9455 F       1  UNL1       -0.2026
      6 C          65.5060   92.0997   13.0119 C.ar    1  UNL1        0.1549
      7 C          64.3120   91.5790   12.2680 C.ar    1  UNL1        0.0553
      8 C          63.6448   90.3117   12.7137 C.ar    1  UNL1        0.1753
      9 F          62.4509   89.7910   11.9698 F       1  UNL1       -0.2009
     10 S          66.1733   93.3670   12.5662 S.O2    1  UNL1        0.0773
     11 O          66.4809   92.7385   11.2394 O.2     1  UNL1       -0.1498
     12 O          65.8657   93.9956   13.8930 O.2     1  UNL1       -0.1498
     13 N          66.8405   94.6344   12.1205 N.pl3   1  UNL1       -0.1925
     14 H          67.3070   95.2020   12.7759 H       1  UNL1        0.1758
     15 C          66.7971   95.0368   10.6762 C.ar    1  UNL1        0.1977
     16 N          67.7738   94.6227    9.6157 N.ar    1  UNL1       -0.1997
     17 C          67.3497   95.2539    8.3228 C.ar    1  UNL1        0.2082
     18 N          66.1108   96.0583    8.5841 N.ar    1  UNL1       -0.1840
     19 S          65.7693   95.9240   10.0386 S.2     1  UNL1        0.0508
     20 C          63.8546   86.9949   13.6934 C.3     1  UNL1        0.2058
     21 C          63.1262   86.5574   12.4574 C.3     1  UNL1        0.0514
     22 C          63.3670   82.4335   13.4967 C.3     1  UNL1        0.0540
     23 C          63.8306   83.6894   14.1733 C.3     1  UNL1        0.0160
     24 C          63.5863   85.0221   13.5296 C.3     1  UNL1        0.0055
     25 C          62.8785   85.0989   12.2094 C.3     1  UNL1        0.0226
     26 C          62.4150   83.8430   11.5328 C.3     1  UNL1        0.0055
     27 C          62.6592   82.5103   12.1765 C.3     1  UNL1        0.0160
     28 C          62.2567   85.6823   10.9752 C.ar    1  UNL1       -0.0227
     29 C          61.1323   86.6677   11.0960 C.ar    1  UNL1       -0.0043
     30 C          60.5105   87.2510    9.8618 C.ar    1  UNL1       -0.0003
     31 C          61.0131   86.8489    8.5070 C.ar    1  UNL1       -0.0000
     32 C          62.1376   85.8634    8.3862 C.ar    1  UNL1       -0.0003
     33 C          62.7593   85.2802    9.6204 C.ar    1  UNL1       -0.0043
     34 C          62.7971   79.9096   13.7305 C.3     1  UNL1        0.0858
     35 N          63.6112   81.1009   14.1404 N.3     1  UNL1       -0.2974
     36 H          64.5879   80.8642   13.9659 H       1  UNL1        0.1232
@<TRIPOS>BOND
     1    34    35    1
     2    22    35    1
     3    22    23    1
     4    23    24    1
     5    24    25    1
     6    25    21    1
     7    21    20    1
     8    20     1    1
     9     1     2    1
    10     2     3   ar
    11     3     4   ar
    12     4     5    1
    13     4     6   ar
    14     6    10    1
    15    10    11    2
    16    10    12    2
    17    10    13    1
    18    13    15    1
    19    15    16   ar
    20    16    17   ar
    21    17    18   ar
    22    18    19   ar
    23     6     7   ar
    24     7     8   ar
    25     8     9    1
    26    25    28    1
    27    28    29   ar
    28    29    30   ar
    29    30    31   ar
    30    31    32   ar
    31    32    33   ar
    32    25    26    1
    33    26    27    1
    34    27    22    1
    35     8     2   ar
    36    33    28   ar
    37    19    15   ar
    38    35    36    1
    39    13    14    1
@<TRIPOS>MOLECULE
*****
 36 39 0 0 0
SMALL
GASTEIGER

@<TRIPOS>ATOM
      1 O          61.0206   88.8263   12.0773 O.3     1  UNL1       -0.4731
      2 C          62.1857   89.7681   12.0017 C.ar    1  UNL1        0.1681
      3 C          63.1629   89.8448   13.1370 C.ar    1  UNL1        0.0702
      4 C          64.3280   90.7866   13.0614 C.ar    1  UNL1        0.1620
      5 F          65.3053   90.8633   14.1969 F       1  UNL1       -0.2026
      6 C          64.5158   91.6516   11.8505 C.ar    1  UNL1        0.1549
      7 C          63.5385   91.5749   10.7151 C.ar    1  UNL1        0.0553
      8 C          62.3735   90.6331   10.7907 C.ar    1  UNL1        0.1753
      9 F          61.3962   90.5564    9.6553 F       1  UNL1       -0.2009
     10 S          65.6808   92.5933   11.7749 S.O2    1  UNL1        0.0773
     11 O          66.0161   92.0691   10.4100 O.2     1  UNL1       -0.1498
     12 O          65.3456   93.1176   13.1397 O.2     1  UNL1       -0.1498
     13 N          66.8459   93.5351   11.6993 N.pl3   1  UNL1       -0.1925
     14 H          67.5959   93.4421   12.3302 H       1  UNL1        0.1758
     15 C          66.8682   94.6187   10.6623 C.ar    1  UNL1        0.1977
     16 N          67.8438   94.7342    9.5287 N.ar    1  UNL1       -0.1997
     17 C          67.4974   95.9638    8.7425 C.ar    1  UNL1        0.2082
     18 N          66.3078   96.6083    9.3902 N.ar    1  UNL1       -0.1840
     19 S          65.9190   95.7769   10.5767 S.2     1  UNL1        0.0508
     20 C          60.9849   87.6059   11.2061 C.3     1  UNL1        0.2058
     21 C          61.5735   86.3165   11.6969 C.3     1  UNL1        0.0514
     22 C          62.6623   84.9543    7.8105 C.3     1  UNL1        0.0540
     23 C          61.7232   86.0176    8.2977 C.3     1  UNL1        0.0160
     24 C          61.5597   86.2568    9.7694 C.3     1  UNL1        0.0055
     25 C          62.3351   85.4327   10.7540 C.3     1  UNL1        0.0226
     26 C          63.2742   84.3693   10.2668 C.3     1  UNL1        0.0055
     27 C          63.4378   84.1301    8.7950 C.3     1  UNL1        0.0160
     28 C          62.8461   84.9154   12.0660 C.ar    1  UNL1       -0.0227
     29 C          63.4786   85.8564   13.0481 C.ar    1  UNL1       -0.0043
     30 C          63.9896   85.3391   14.3601 C.ar    1  UNL1       -0.0003
     31 C          63.8681   83.8809   14.6899 C.ar    1  UNL1       -0.0000
     32 C          63.2356   82.9399   13.7079 C.ar    1  UNL1       -0.0003
     33 C          62.7246   83.4572   12.3959 C.ar    1  UNL1       -0.0043
     34 C          61.6806   84.1746    5.5349 C.3     1  UNL1        0.0858
     35 N          62.8259   84.7151    6.3388 N.3     1  UNL1       -0.2974
     36 H          63.0819   85.6100    5.9217 H       1  UNL1        0.1232
@<TRIPOS>BOND
     1    34    35    1
     2    22    35    1
     3    22    23    1
     4    23    24    1
     5    24    25    1
     6    25    21    1
     7    21    20    1
     8    20     1    1
     9     1     2    1
    10     2     3   ar
    11     3     4   ar
    12     4     5    1
    13     4     6   ar
    14     6    10    1
    15    10    11    2
    16    10    12    2
    17    10    13    1
    18    13    15    1
    19    15    16   ar
    20    16    17   ar
    21    17    18   ar
    22    18    19   ar
    23     6     7   ar
    24     7     8   ar
    25     8     9    1
    26    25    28    1
    27    28    29   ar
    28    29    30   ar
    29    30    31   ar
    30    31    32   ar
    31    32    33   ar
    32    25    26    1
    33    26    27    1
    34    27    22    1
    35     8     2   ar
    36    33    28   ar
    37    19    15   ar
    38    35    36    1
    39    13    14    1
@<TRIPOS>MOLECULE
*****
 36 39 0 0 0
SMALL
GASTEIGER

@<TRIPOS>ATOM
      1 O          60.9454   88.9572   12.0619 O.3     1  UNL1       -0.4731
      2 C          62.1310   89.8727   11.9840 C.ar    1  UNL1        0.1681
      3 C          63.0903   89.9570   13.1340 C.ar    1  UNL1        0.0702
      4 C          64.2759   90.8725   13.0561 C.ar    1  UNL1        0.1620
      5 F          65.2352   90.9569   14.2063 F       1  UNL1       -0.2026
      6 C          64.5022   91.7038   11.8283 C.ar    1  UNL1        0.1549
      7 C          63.5429   91.6195   10.6782 C.ar    1  UNL1        0.0553
      8 C          62.3573   90.7040   10.7560 C.ar    1  UNL1        0.1753
      9 F          61.3980   90.6197    9.6060 F       1  UNL1       -0.2009
     10 S          65.6878   92.6193   11.7504 S.O2    1  UNL1        0.0773
     11 O          65.3864   93.1271   13.1293 O.2     1  UNL1       -0.1498
     12 O          65.9893   92.1116   10.3715 O.2     1  UNL1       -0.1498
     13 N          66.8735   93.5349   11.6725 N.pl3   1  UNL1       -0.1925
     14 H          67.6387   93.4020   12.2775 H       1  UNL1        0.1758
     15 C          66.8931   94.6531   10.6729 C.ar    1  UNL1        0.1977
     16 N          67.8386   94.7848    9.5158 N.ar    1  UNL1       -0.1997
     17 C          67.5007   96.0489    8.7825 C.ar    1  UNL1        0.2082
     18 N          66.3462   96.6985    9.4863 N.ar    1  UNL1       -0.1840
     19 S          65.9708   95.8358   10.6546 S.2     1  UNL1        0.0508
     20 C          60.8551   87.7678   11.1524 C.3     1  UNL1        0.2058
     21 C          62.0923   87.2283   10.4982 C.3     1  UNL1        0.0514
     22 C          63.7709   84.2602   13.0512 C.3     1  UNL1        0.0540
     23 C          63.4685   85.7178   13.2350 C.3     1  UNL1        0.0160
     24 C          62.8614   86.5054   12.1121 C.3     1  UNL1        0.0055
     25 C          62.5565   85.8353   10.8052 C.3     1  UNL1        0.0226
     26 C          62.8588   84.3777   10.6213 C.3     1  UNL1        0.0055
     27 C          63.4660   83.5901   11.7443 C.3     1  UNL1        0.0160
     28 C          62.0904   85.6489    9.3916 C.ar    1  UNL1       -0.0227
     29 C          60.7004   86.0551    9.0005 C.ar    1  UNL1       -0.0043
     30 C          60.2344   85.8688    7.5870 C.ar    1  UNL1       -0.0003
     31 C          61.1583   85.2762    6.5646 C.ar    1  UNL1       -0.0000
     32 C          62.5483   84.8701    6.9557 C.ar    1  UNL1       -0.0003
     33 C          63.0143   85.0565    8.3692 C.ar    1  UNL1       -0.0043
     34 C          63.6906   83.4134   15.5060 C.3     1  UNL1        0.0858
     35 N          64.3780   83.4726   14.1741 N.3     1  UNL1       -0.2974
     36 H          64.4664   82.5111   13.8454 H       1  UNL1        0.1232
@<TRIPOS>BOND
     1    34    35    1
     2    22    35    1
     3    22    23    1
     4    23    24    1
     5    24    25    1
     6    25    21    1
     7    21    20    1
     8    20     1    1
     9     1     2    1
    10     2     3   ar
    11     3     4   ar
    12     4     5    1
    13     4     6   ar
    14     6    10    1
    15    10    11    2
    16    10    12    2
    17    10    13    1
    18    13    15    1
    19    15    16   ar
    20    16    17   ar
    21    17    18   ar
    22    18    19   ar
    23     6     7   ar
    24     7     8   ar
    25     8     9    1
    26    25    28    1
    27    28    29   ar
    28    29    30   ar
    29    30    31   ar
    30    31    32   ar
    31    32    33   ar
    32    25    26    1
    33    26    27    1
    34    27    22    1
    35     8     2   ar
    36    33    28   ar
    37    19    15   ar
    38    35    36    1
    39    13    14    1
@<TRIPOS>MOLECULE
*****
 36 39 0 0 0
SMALL
GASTEIGER

@<TRIPOS>ATOM
      1 O          61.3995   86.7596   11.3627 O.3     1  UNL1       -0.4731
      2 C          62.1963   88.0071   11.6048 C.ar    1  UNL1        0.1681
      3 C          63.0959   88.1020   12.8014 C.ar    1  UNL1        0.0702
      4 C          63.8928   89.3495   13.0435 C.ar    1  UNL1        0.1620
      5 F          64.7924   89.4444   14.2402 F       1  UNL1       -0.2026
      6 C          63.7901   90.5022   12.0892 C.ar    1  UNL1        0.1549
      7 C          62.8905   90.4073   10.8926 C.ar    1  UNL1        0.0553
      8 C          62.0936   89.1598   10.6504 C.ar    1  UNL1        0.1753
      9 F          61.1941   89.0649    9.4539 F       1  UNL1       -0.2009
     10 S          64.5870   91.7497   12.3314 S.O2    1  UNL1        0.0773
     11 O          64.1284   91.7655   13.7596 O.2     1  UNL1       -0.1498
     12 O          65.0456   91.7340   10.9033 O.2     1  UNL1       -0.1498
     13 N          65.3839   92.9973   12.5736 N.pl3   1  UNL1       -0.1925
     14 H          65.1327   93.8368   12.1248 H       1  UNL1        0.1758
     15 C          66.5634   92.9657   13.4997 C.ar    1  UNL1        0.1977
     16 N          66.7749   93.8553   14.6888 N.ar    1  UNL1       -0.1997
     17 C          68.0807   93.4785   15.3233 C.ar    1  UNL1        0.2082
     18 N          68.6764   92.3559   14.5264 N.ar    1  UNL1       -0.1840
     19 S          67.7386   92.0391   13.3993 S.2     1  UNL1        0.0508
     20 C          62.1009   85.4501   11.1550 C.3     1  UNL1        0.2058
     21 C          63.1365   84.9898   12.1376 C.3     1  UNL1        0.0514
     22 C          62.8714   80.7648   11.6651 C.3     1  UNL1        0.0540
     23 C          62.8584   81.9072   10.6932 C.3     1  UNL1        0.0160
     24 C          62.9731   83.3173   11.1917 C.3     1  UNL1        0.0055
     25 C          63.1009   83.5849   12.6621 C.3     1  UNL1        0.0226
     26 C          63.1139   82.4425   13.6340 C.3     1  UNL1        0.0055
     27 C          62.9991   81.0324   13.1355 C.3     1  UNL1        0.0160
     28 C          63.2410   84.3405   13.9504 C.ar    1  UNL1       -0.0227
     29 C          62.1971   84.2018   15.0185 C.ar    1  UNL1       -0.0043
     30 C          62.3372   84.9573   16.3068 C.ar    1  UNL1       -0.0003
     31 C          63.5212   85.8515   16.5268 C.ar    1  UNL1       -0.0000
     32 C          64.5652   85.9902   15.4586 C.ar    1  UNL1       -0.0003
     33 C          64.4250   85.2347   14.1704 C.ar    1  UNL1       -0.0043
     34 C          62.7602   79.0777    9.6924 C.3     1  UNL1        0.0858
     35 N          62.7567   79.3547   11.1666 N.3     1  UNL1       -0.2974
     36 H          63.5397   78.8368   11.5654 H       1  UNL1        0.1232
@<TRIPOS>BOND
     1    34    35    1
     2    22    35    1
     3    22    23    1
     4    23    24    1
     5    24    25    1
     6    25    21    1
     7    21    20    1
     8    20     1    1
     9     1     2    1
    10     2     3   ar
    11     3     4   ar
    12     4     5    1
    13     4     6   ar
    14     6    10    1
    15    10    11    2
    16    10    12    2
    17    10    13    1
    18    13    15    1
    19    15    16   ar
    20    16    17   ar
    21    17    18   ar
    22    18    19   ar
    23     6     7   ar
    24     7     8   ar
    25     8     9    1
    26    25    28    1
    27    28    29   ar
    28    29    30   ar
    29    30    31   ar
    30    31    32   ar
    31    32    33   ar
    32    25    26    1
    33    26    27    1
    34    27    22    1
    35     8     2   ar
    36    33    28   ar
    37    19    15   ar
    38    35    36    1
    39    13    14    1
@<TRIPOS>MOLECULE
*****
 36 39 0 0 0
SMALL
GASTEIGER

@<TRIPOS>ATOM
      1 O          61.4235   86.9886   11.5771 O.3     1  UNL1       -0.4731
      2 C          62.2132   88.2632   11.6159 C.ar    1  UNL1        0.1681
      3 C          63.1686   88.5195   12.7435 C.ar    1  UNL1        0.0702
      4 C          63.9583   89.7942   12.7824 C.ar    1  UNL1        0.1620
      5 F          64.9137   90.0505   13.9101 F       1  UNL1       -0.2026
      6 C          63.7927   90.8126   11.6937 C.ar    1  UNL1        0.1549
      7 C          62.8373   90.5563   10.5660 C.ar    1  UNL1        0.0553
      8 C          62.0475   89.2817   10.5271 C.ar    1  UNL1        0.1753
      9 F          61.0922   89.0254    9.3995 F       1  UNL1       -0.2009
     10 S          64.5824   92.0872   11.7325 S.O2    1  UNL1        0.0773
     11 O          64.5959   92.0332   13.2316 O.2     1  UNL1       -0.1498
     12 O          64.5689   92.1413   10.2336 O.2     1  UNL1       -0.1498
     13 N          65.3722   93.3620   11.7714 N.pl3   1  UNL1       -0.1925
     14 H          65.0929   94.0962   12.3649 H       1  UNL1        0.1758
     15 C          66.5874   93.5179   10.9061 C.ar    1  UNL1        0.1977
     16 N          67.6367   92.4737   10.6632 N.ar    1  UNL1       -0.1997
     17 C          68.6646   93.0557    9.7388 C.ar    1  UNL1        0.2082
     18 N          68.2507   94.4596    9.4103 N.ar    1  UNL1       -0.1840
     19 S          66.9669   94.7451   10.1318 S.2     1  UNL1        0.0508
     20 C          62.1108   85.6892   11.2786 C.3     1  UNL1        0.2058
     21 C          63.1927   85.1868   12.1880 C.3     1  UNL1        0.0514
     22 C          62.9487   80.9619   11.7023 C.3     1  UNL1        0.0540
     23 C          62.9663   82.1055   10.7318 C.3     1  UNL1        0.0160
     24 C          63.0628   83.5151   11.2354 C.3     1  UNL1        0.0055
     25 C          63.1415   83.7812   12.7094 C.3     1  UNL1        0.0226
     26 C          63.1239   82.6377   13.6799 C.3     1  UNL1        0.0055
     27 C          63.0275   81.2280   13.1763 C.3     1  UNL1        0.0160
     28 C          63.2381   84.5354   14.0025 C.ar    1  UNL1       -0.0227
     29 C          62.2229   84.3054   15.0825 C.ar    1  UNL1       -0.0043
     30 C          62.3195   85.0596   16.3755 C.ar    1  UNL1       -0.0003
     31 C          63.4312   86.0438   16.5884 C.ar    1  UNL1       -0.0000
     32 C          64.4464   86.2738   15.5084 C.ar    1  UNL1       -0.0003
     33 C          64.3498   85.5196   14.2155 C.ar    1  UNL1       -0.0043
     34 C          62.8698   79.2799    9.7237 C.3     1  UNL1        0.0858
     35 N          62.8523   79.5523   11.1987 N.3     1  UNL1       -0.2974
     36 H          63.6376   79.0412   11.6018 H       1  UNL1        0.1232
@<TRIPOS>BOND
     1    34    35    1
     2    22    35    1
     3    22    23    1
     4    23    24    1
     5    24    25    1
     6    25    21    1
     7    21    20    1
     8    20     1    1
     9     1     2    1
    10     2     3   ar
    11     3     4   ar
    12     4     5    1
    13     4     6   ar
    14     6    10    1
    15    10    11    2
    16    10    12    2
    17    10    13    1
    18    13    15    1
    19    15    16   ar
    20    16    17   ar
    21    17    18   ar
    22    18    19   ar
    23     6     7   ar
    24     7     8   ar
    25     8     9    1
    26    25    28    1
    27    28    29   ar
    28    29    30   ar
    29    30    31   ar
    30    31    32   ar
    31    32    33   ar
    32    25    26    1
    33    26    27    1
    34    27    22    1
    35     8     2   ar
    36    33    28   ar
    37    19    15   ar
    38    35    36    1
    39    13    14    1
@<TRIPOS>MOLECULE
*****
 36 39 0 0 0
SMALL
GASTEIGER

@<TRIPOS>ATOM
      1 O          60.5300   88.7323   11.7452 O.3     1  UNL1       -0.4731
      2 C          61.7562   89.5870   11.8712 C.ar    1  UNL1        0.1681
      3 C          62.3907   89.7949   13.2144 C.ar    1  UNL1        0.0702
      4 C          63.6168   90.6496   13.3405 C.ar    1  UNL1        0.1620
      5 F          64.2514   90.8576   14.6837 F       1  UNL1       -0.2026
      6 C          64.2086   91.2965   12.1234 C.ar    1  UNL1        0.1549
      7 C          63.5741   91.0885   10.7801 C.ar    1  UNL1        0.0553
      8 C          62.3479   90.2338   10.6540 C.ar    1  UNL1        0.1753
      9 F          61.7135   90.0259    9.3109 F       1  UNL1       -0.2009
     10 S          65.4348   92.1512   12.2494 S.O2    1  UNL1        0.0773
     11 O          65.9236   91.2845   13.3720 O.2     1  UNL1       -0.1498
     12 O          64.9461   93.0177   11.1268 O.2     1  UNL1       -0.1498
     13 N          66.6610   93.0059   12.3754 N.pl3   1  UNL1       -0.1925
     14 H          66.9679   93.5426   11.6093 H       1  UNL1        0.1758
     15 C          67.4197   93.0428   13.6689 C.ar    1  UNL1        0.1977
     16 N          68.7531   92.4062   13.9274 N.ar    1  UNL1       -0.1997
     17 C          69.1357   92.6927   15.3492 C.ar    1  UNL1        0.2082
     18 N          68.0388   93.5063   15.9695 N.ar    1  UNL1       -0.1840
     19 S          66.9783   93.7227   14.9309 S.2     1  UNL1        0.0508
     20 C          60.6190   87.3844   11.0932 C.3     1  UNL1        0.2058
     21 C          61.5571   86.3483   11.6377 C.3     1  UNL1        0.0514
     22 C          62.6373   84.9564    7.7594 C.3     1  UNL1        0.0540
     23 C          61.6975   86.0218    8.2406 C.3     1  UNL1        0.0160
     24 C          61.5377   86.2728    9.7108 C.3     1  UNL1        0.0055
     25 C          62.3177   85.4583   10.6998 C.3     1  UNL1        0.0226
     26 C          63.2575   84.3929   10.2186 C.3     1  UNL1        0.0055
     27 C          63.4173   84.1419    8.7484 C.3     1  UNL1        0.0160
     28 C          62.8336   84.9529   12.0146 C.ar    1  UNL1       -0.0227
     29 C          62.7857   83.4862   12.3252 C.ar    1  UNL1       -0.0043
     30 C          63.3016   82.9808   13.6400 C.ar    1  UNL1       -0.0003
     31 C          63.8654   83.9422   14.6439 C.ar    1  UNL1       -0.0000
     32 C          63.9133   85.4089   14.3333 C.ar    1  UNL1       -0.0003
     33 C          63.3974   85.9142   13.0186 C.ar    1  UNL1       -0.0043
     34 C          61.6432   84.1786    5.4886 C.3     1  UNL1        0.0858
     35 N          62.7970   84.7054    6.2892 N.3     1  UNL1       -0.2974
     36 H          63.0676   85.5934    5.8666 H       1  UNL1        0.1232
@<TRIPOS>BOND
     1    34    35    1
     2    22    35    1
     3    22    23    1
     4    23    24    1
     5    24    25    1
     6    25    21    1
     7    21    20    1
     8    20     1    1
     9     1     2    1
    10     2     3   ar
    11     3     4   ar
    12     4     5    1
    13     4     6   ar
    14     6    10    1
    15    10    11    2
    16    10    12    2
    17    10    13    1
    18    13    15    1
    19    15    16   ar
    20    16    17   ar
    21    17    18   ar
    22    18    19   ar
    23     6     7   ar
    24     7     8   ar
    25     8     9    1
    26    25    28    1
    27    28    29   ar
    28    29    30   ar
    29    30    31   ar
    30    31    32   ar
    31    32    33   ar
    32    25    26    1
    33    26    27    1
    34    27    22    1
    35     8     2   ar
    36    33    28   ar
    37    19    15   ar
    38    35    36    1
    39    13    14    1
@<TRIPOS>MOLECULE
*****
 36 39 0 0 0
SMALL
GASTEIGER

@<TRIPOS>ATOM
      1 O          63.1286   84.3286   10.6719 O.3     1  UNL1       -0.4731
      2 C          62.1938   85.2524    9.9490 C.ar    1  UNL1        0.1681
      3 C          61.2710   86.1442   10.7256 C.ar    1  UNL1        0.0702
      4 C          60.3362   87.0680   10.0027 C.ar    1  UNL1        0.1620
      5 F          59.4133   87.9598   10.7794 F       1  UNL1       -0.2026
      6 C          60.3241   87.1001    8.5031 C.ar    1  UNL1        0.1549
      7 C          61.2470   86.2084    7.7264 C.ar    1  UNL1        0.0553
      8 C          62.1818   85.2845    8.4493 C.ar    1  UNL1        0.1753
      9 F          63.1046   84.3928    7.6727 F       1  UNL1       -0.2009
     10 S          59.3893   88.0239    7.7802 S.O2    1  UNL1        0.0773
     11 O          58.6561   86.8422    7.2181 O.2     1  UNL1       -0.1498
     12 O          60.1225   89.2057    8.3423 O.2     1  UNL1       -0.1498
     13 N          58.4544   88.9478    7.0573 N.pl3   1  UNL1       -0.1925
     14 H          57.4836   88.8814    7.2065 H       1  UNL1        0.1758
     15 C          58.9989   89.9726    6.1069 C.ar    1  UNL1        0.1977
     16 N          60.4219   90.0781    5.6444 N.ar    1  UNL1       -0.1997
     17 C          60.5186   91.2426    4.7038 C.ar    1  UNL1        0.2082
     18 N          59.1553   91.8569    4.5850 N.ar    1  UNL1       -0.1840
     19 S          58.2161   91.0719    5.4522 S.2     1  UNL1        0.0508
     20 C          63.9275   84.8314   11.8376 C.3     1  UNL1        0.2058
     21 C          64.1718   83.9407   13.0195 C.3     1  UNL1        0.0514
     22 C          63.2157   86.3854   16.3742 C.3     1  UNL1        0.0540
     23 C          64.0814   86.5949   15.1673 C.3     1  UNL1        0.0160
     24 C          64.2123   85.5092   14.1406 C.3     1  UNL1        0.0055
     25 C          63.4776   84.2140   14.3208 C.3     1  UNL1        0.0226
     26 C          62.6119   84.0045   15.5277 C.3     1  UNL1        0.0055
     27 C          62.4810   85.0902   16.5544 C.3     1  UNL1        0.0160
     28 C          62.9838   82.8238   14.0490 C.ar    1  UNL1       -0.0227
     29 C          63.8861   81.8230   13.3901 C.ar    1  UNL1       -0.0043
     30 C          63.3924   80.4328   13.1183 C.ar    1  UNL1       -0.0003
     31 C          61.9965   80.0437   13.5056 C.ar    1  UNL1       -0.0000
     32 C          61.0942   81.0445   14.1645 C.ar    1  UNL1       -0.0003
     33 C          61.5880   82.4346   14.4362 C.ar    1  UNL1       -0.0043
     34 C          63.0834   88.9094   16.9755 C.3     1  UNL1        0.0858
     35 N          63.0848   87.4711   17.4009 N.3     1  UNL1       -0.2974
     36 H          62.2054   87.3082   17.8912 H       1  UNL1        0.1232
@<TRIPOS>BOND
     1    34    35    1
     2    22    35    1
     3    22    23    1
     4    23    24    1
     5    24    25    1
     6    25    21    1
     7    21    20    1
     8    20     1    1
     9     1     2    1
    10     2     3   ar
    11     3     4   ar
    12     4     5    1
    13     4     6   ar
    14     6    10    1
    15    10    11    2
    16    10    12    2
    17    10    13    1
    18    13    15    1
    19    15    16   ar
    20    16    17   ar
    21    17    18   ar
    22    18    19   ar
    23     6     7   ar
    24     7     8   ar
    25     8     9    1
    26    25    28    1
    27    28    29   ar
    28    29    30   ar
    29    30    31   ar
    30    31    32   ar
    31    32    33   ar
    32    25    26    1
    33    26    27    1
    34    27    22    1
    35     8     2   ar
    36    33    28   ar
    37    19    15   ar
    38    35    36    1
    39    13    14    1
@<TRIPOS>MOLECULE
*****
 36 39 0 0 0
SMALL
GASTEIGER

@<TRIPOS>ATOM
      1 O          62.1335   88.5816   12.5577 O.3     1  UNL1       -0.4731
      2 C          63.0798   89.7331   12.3890 C.ar    1  UNL1        0.1681
      3 C          63.0348   90.5642   11.1412 C.ar    1  UNL1        0.0702
      4 C          63.9811   91.7157   10.9725 C.ar    1  UNL1        0.1620
      5 F          63.9361   92.5469    9.7246 F       1  UNL1       -0.2026
      6 C          64.9725   92.0362   12.0516 C.ar    1  UNL1        0.1549
      7 C          65.0175   91.2050   13.2996 C.ar    1  UNL1        0.0553
      8 C          64.0712   90.0535   13.4682 C.ar    1  UNL1        0.1753
      9 F          64.1162   89.2223   14.7161 F       1  UNL1       -0.2009
     10 S          65.9188   93.1877   11.8829 S.O2    1  UNL1        0.0773
     11 O          65.8269   93.4784   13.3517 O.2     1  UNL1       -0.1498
     12 O          66.0107   92.8970   10.4143 O.2     1  UNL1       -0.1498
     13 N          66.8651   94.3392   11.7143 N.pl3   1  UNL1       -0.1925
     14 H          67.5164   94.5490   12.4222 H       1  UNL1        0.1758
     15 C          66.8192   95.1711   10.4670 C.ar    1  UNL1        0.1977
     16 N          65.8819   96.3119   10.2021 N.ar    1  UNL1       -0.1997
     17 C          66.1857   96.8543    8.8370 C.ar    1  UNL1        0.2082
     18 N          67.3109   96.0487    8.2581 N.ar    1  UNL1       -0.1840
     19 S          67.7023   95.0084    9.2656 S.2     1  UNL1        0.0508
     20 C          60.9533   88.4404   11.6428 C.3     1  UNL1        0.2058
     21 C          60.5283   87.0815   11.1710 C.3     1  UNL1        0.0514
     22 C          63.5695   84.1945   10.4226 C.3     1  UNL1        0.0540
     23 C          62.9321   84.7090   11.6792 C.3     1  UNL1        0.0160
     24 C          61.8598   85.7550   11.6022 C.3     1  UNL1        0.0055
     25 C          61.4249   86.2865   10.2687 C.3     1  UNL1        0.0226
     26 C          62.0623   85.7720    9.0122 C.3     1  UNL1        0.0055
     27 C          63.1346   84.7260    9.0891 C.3     1  UNL1        0.0160
     28 C          60.6786   87.0942    9.2485 C.ar    1  UNL1       -0.0227
     29 C          59.7287   86.4176    8.3051 C.ar    1  UNL1       -0.0043
     30 C          58.9824   87.2253    7.2849 C.ar    1  UNL1       -0.0003
     31 C          59.1860   88.7094    7.2082 C.ar    1  UNL1       -0.0000
     32 C          60.1358   89.3859    8.1516 C.ar    1  UNL1       -0.0003
     33 C          60.8821   88.5783    9.1717 C.ar    1  UNL1       -0.0043
     34 C          64.5097   82.0085   11.4655 C.3     1  UNL1        0.0858
     35 N          64.6419   83.1484   10.4996 N.3     1  UNL1       -0.2974
     36 H          64.7204   82.7382    9.5690 H       1  UNL1        0.1232
@<TRIPOS>BOND
     1    34    35    1
     2    22    35    1
     3    22    23    1
     4    23    24    1
     5    24    25    1
     6    25    21    1
     7    21    20    1
     8    20     1    1
     9     1     2    1
    10     2     3   ar
    11     3     4   ar
    12     4     5    1
    13     4     6   ar
    14     6    10    1
    15    10    11    2
    16    10    12    2
    17    10    13    1
    18    13    15    1
    19    15    16   ar
    20    16    17   ar
    21    17    18   ar
    22    18    19   ar
    23     6     7   ar
    24     7     8   ar
    25     8     9    1
    26    25    28    1
    27    28    29   ar
    28    29    30   ar
    29    30    31   ar
    30    31    32   ar
    31    32    33   ar
    32    25    26    1
    33    26    27    1
    34    27    22    1
    35     8     2   ar
    36    33    28   ar
    37    19    15   ar
    38    35    36    1
    39    13    14    1
