@<TRIPOS>MOLECULE
*****
 37 41 0 0 0
SMALL
GASTEIGER

@<TRIPOS>ATOM
      1 C          64.2563   89.9707   14.8553 C.ar    1  UNL1        0.1725
      2 C          64.4604   88.8554   13.8732 C.ar    1  UNL1        0.0398
      3 C          64.1316   87.4444   14.2616 C.ar    1  UNL1        0.0034
      4 C          63.5988   87.1486   15.6322 C.ar    1  UNL1        0.0067
      5 C          63.2700   85.7375   16.0207 C.ar    1  UNL1        0.0537
      6 C          62.7371   85.4417   17.3913 C.ar    1  UNL1        0.0045
      7 C          62.5330   86.5570   18.3734 C.ar    1  UNL1        0.0002
      8 C          62.8618   87.9680   17.9850 C.ar    1  UNL1        0.0023
      9 C          63.3947   88.2638   16.6144 C.ar    1  UNL1        0.0307
     10 C          63.7234   89.6749   16.2259 C.ar    1  UNL1        0.1743
     11 F          63.5193   90.7900   17.2081 F       1  UNL1       -0.2010
     12 C          63.4741   84.6223   15.0385 C.2     1  UNL1        0.2495
     13 O          64.7006   83.7630   15.1237 O.2     1  UNL1       -0.2698
     14 N          62.4517   84.3664   13.9712 N.am    1  UNL1       -0.2804
     15 H          61.6467   84.9304   13.9153 H       1  UNL1        0.1552
     16 C          62.6557   83.2512   12.9890 C.ar    1  UNL1        0.0506
     17 C          62.3059   81.8431   13.3697 C.ar    1  UNL1        0.0155
     18 C          62.5099   80.7279   12.3876 C.ar    1  UNL1        0.0127
     19 C          63.0638   81.0207   11.0248 C.ar    1  UNL1        0.0578
     20 CL         63.2679   79.9055   10.0426 Cl      1  UNL1       -0.0822
     21 C          63.4136   82.4288   10.6440 C.ar    1  UNL1        0.0127
     22 C          63.2096   83.5440   11.6262 C.ar    1  UNL1        0.0155
     23 O          64.5851   91.3816   14.4669 O.3     1  UNL1       -0.4511
     24 C          61.5793   90.1745   10.1359 C.ar    1  UNL1        0.1739
     25 C          62.6635   91.0890    9.6480 C.ar    1  UNL1        0.0592
     26 C          63.6861   91.6194   10.6087 C.ar    1  UNL1        0.0875
     27 N          64.7703   92.5339   10.1208 N.ar    1  UNL1       -0.2435
     28 C          65.7928   93.0643   11.0816 C.ar    1  UNL1        0.1020
     29 C          65.7311   92.6802   12.5303 C.ar    1  UNL1        0.0581
     30 C          64.6469   91.7657   13.0182 C.ar    1  UNL1        0.1484
     31 C          63.6244   91.2354   12.0574 C.ar    1  UNL1        0.0554
     32 C          62.5400   90.3208   12.5453 C.ar    1  UNL1        0.0446
     33 C          61.5175   89.7904   11.5845 C.ar    1  UNL1        0.1726
     34 C          60.5132   88.1783    8.8597 C.3     1  UNL1        0.2526
     35 O          60.5567   89.6441    9.1751 O.3     1  UNL1       -0.4683
     36 O          60.4332   88.8759   12.0724 O.3     1  UNL1       -0.4684
     37 C          59.0502   89.4087   12.3032 C.3     1  UNL1        0.2526
@<TRIPOS>BOND
     1    34    35    1
     2    35    24    1
     3    24    25   ar
     4    25    26   ar
     5    26    27   ar
     6    27    28   ar
     7    28    29   ar
     8    29    30   ar
     9    30    23    1
    10    23     1    1
    11     1     2   ar
    12     2     3   ar
    13     3     4   ar
    14     4     5   ar
    15     5    12    1
    16    12    13    2
    17    12    14   am
    18    14    16    1
    19    16    17   ar
    20    17    18   ar
    21    18    19   ar
    22    19    20    1
    23    19    21   ar
    24    21    22   ar
    25     5     6   ar
    26     6     7   ar
    27     7     8   ar
    28     8     9   ar
    29     9    10   ar
    30    10    11    1
    31    30    31   ar
    32    31    32   ar
    33    32    33   ar
    34    33    36    1
    35    36    37    1
    36    33    24   ar
    37    31    26   ar
    38    10     1   ar
    39     9     4   ar
    40    22    16   ar
    41    14    15    1
@<TRIPOS>MOLECULE
*****
 37 41 0 0 0
SMALL
GASTEIGER

@<TRIPOS>ATOM
      1 C          63.9745   90.0452   15.2587 C.ar    1  UNL1        0.1725
      2 C          64.2088   89.0845   14.1308 C.ar    1  UNL1        0.0398
      3 C          63.9796   87.6164   14.3362 C.ar    1  UNL1        0.0034
      4 C          63.5161   87.1090   15.6695 C.ar    1  UNL1        0.0067
      5 C          63.2869   85.6409   15.8748 C.ar    1  UNL1        0.0537
      6 C          62.8235   85.1334   17.2081 C.ar    1  UNL1        0.0045
      7 C          62.5892   86.0942   18.3361 C.ar    1  UNL1        0.0002
      8 C          62.8184   87.5622   18.1307 C.ar    1  UNL1        0.0023
      9 C          63.2819   88.0696   16.7974 C.ar    1  UNL1        0.0307
     10 C          63.5110   89.5378   16.5921 C.ar    1  UNL1        0.1743
     11 F          63.2768   90.4984   17.7200 F       1  UNL1       -0.2010
     12 C          63.5212   84.6802   14.7469 C.2     1  UNL1        0.2495
     13 O          64.8923   84.5379   14.1555 O.2     1  UNL1       -0.2698
     14 N          62.3844   83.8619   14.2104 N.am    1  UNL1       -0.2804
     15 H          61.4845   83.9553   14.5986 H       1  UNL1        0.1552
     16 C          62.6186   82.9012   13.0824 C.ar    1  UNL1        0.0506
     17 C          62.4320   81.4289   13.3003 C.ar    1  UNL1        0.0155
     18 C          62.6662   80.4682   12.1724 C.ar    1  UNL1        0.0127
     19 C          63.0870   80.9799   10.8266 C.ar    1  UNL1        0.0578
     20 CL         63.3213   80.0192    9.6986 Cl      1  UNL1       -0.0822
     21 C          63.2737   82.4522   10.6088 C.ar    1  UNL1        0.0127
     22 C          63.0394   83.4129   11.7367 C.ar    1  UNL1        0.0155
     23 O          64.2037   91.5133   15.0534 O.3     1  UNL1       -0.4511
     24 C          66.7800   92.9117   10.5084 C.ar    1  UNL1        0.1739
     25 C          67.7597   93.1245   11.6242 C.ar    1  UNL1        0.0592
     26 C          67.3605   92.8280   13.0394 C.ar    1  UNL1        0.0875
     27 N          68.3401   93.0408   14.1552 N.ar    1  UNL1       -0.2435
     28 C          67.9410   92.7444   15.5704 C.ar    1  UNL1        0.1020
     29 C          66.5622   92.2352   15.8697 C.ar    1  UNL1        0.0581
     30 C          65.5825   92.0224   14.7540 C.ar    1  UNL1        0.1484
     31 C          65.9817   92.3189   13.3388 C.ar    1  UNL1        0.0554
     32 C          65.0020   92.1061   12.2229 C.ar    1  UNL1        0.0446
     33 C          65.4012   92.4026   10.8078 C.ar    1  UNL1        0.1726
     34 C          67.2971   94.6297    8.6292 C.3     1  UNL1        0.2526
     35 O          67.1792   93.2082    9.0931 O.3     1  UNL1       -0.4683
     36 O          64.4216   92.1898    9.6919 O.3     1  UNL1       -0.4684
     37 C          63.1729   91.3940    9.9317 C.3     1  UNL1        0.2526
@<TRIPOS>BOND
     1    34    35    1
     2    35    24    1
     3    24    25   ar
     4    25    26   ar
     5    26    27   ar
     6    27    28   ar
     7    28    29   ar
     8    29    30   ar
     9    30    23    1
    10    23     1    1
    11     1     2   ar
    12     2     3   ar
    13     3     4   ar
    14     4     5   ar
    15     5    12    1
    16    12    13    2
    17    12    14   am
    18    14    16    1
    19    16    17   ar
    20    17    18   ar
    21    18    19   ar
    22    19    20    1
    23    19    21   ar
    24    21    22   ar
    25     5     6   ar
    26     6     7   ar
    27     7     8   ar
    28     8     9   ar
    29     9    10   ar
    30    10    11    1
    31    30    31   ar
    32    31    32   ar
    33    32    33   ar
    34    33    36    1
    35    36    37    1
    36    33    24   ar
    37    31    26   ar
    38    10     1   ar
    39     9     4   ar
    40    22    16   ar
    41    14    15    1
@<TRIPOS>MOLECULE
*****
 37 41 0 0 0
SMALL
GASTEIGER

@<TRIPOS>ATOM
      1 C          61.8993   89.6676   12.4119 C.ar    1  UNL1        0.1725
      2 C          62.6394   90.4221   11.3473 C.ar    1  UNL1        0.0398
      3 C          63.8056   91.2901   11.7164 C.ar    1  UNL1        0.0034
      4 C          64.2319   91.4038   13.1500 C.ar    1  UNL1        0.0067
      5 C          65.3982   92.2719   13.5191 C.ar    1  UNL1        0.0537
      6 C          65.8245   92.3856   14.9527 C.ar    1  UNL1        0.0045
      7 C          65.0845   91.6312   16.0173 C.ar    1  UNL1        0.0002
      8 C          63.9183   90.7631   15.6482 C.ar    1  UNL1        0.0023
      9 C          63.4920   90.6494   14.2146 C.ar    1  UNL1        0.0307
     10 C          62.3257   89.7813   13.8455 C.ar    1  UNL1        0.1743
     11 F          61.5857   89.0269   14.9101 F       1  UNL1       -0.2010
     12 C          66.1382   93.0263   12.4545 C.2     1  UNL1        0.2495
     13 O          67.6361   92.9708   12.3996 O.2     1  UNL1       -0.2698
     14 N          65.3802   93.8362   11.4449 N.am    1  UNL1       -0.2804
     15 H          64.3970   93.8727   11.4810 H       1  UNL1        0.1552
     16 C          66.1201   94.5907   10.3803 C.ar    1  UNL1        0.0506
     17 C          66.7831   93.8482    9.2582 C.ar    1  UNL1        0.0155
     18 C          67.5230   94.6025    8.1936 C.ar    1  UNL1        0.0127
     19 C          67.5999   96.0994    8.2511 C.ar    1  UNL1        0.0578
     20 CL         68.3399   96.8539    7.1864 Cl      1  UNL1       -0.0822
     21 C          66.9370   96.8419    9.3732 C.ar    1  UNL1        0.0127
     22 C          66.1971   96.0876   10.4378 C.ar    1  UNL1        0.0155
     23 O          60.7331   88.7995   12.0428 O.3     1  UNL1       -0.4511
     24 C          63.2114   84.2576   10.4686 C.ar    1  UNL1        0.1739
     25 C          62.4157   84.7281    9.2873 C.ar    1  UNL1        0.0592
     26 C          61.5971   85.9813    9.3856 C.ar    1  UNL1        0.0875
     27 N          60.8014   86.4519    8.2043 N.ar    1  UNL1       -0.2435
     28 C          59.9829   87.7050    8.3026 C.ar    1  UNL1        0.1020
     29 C          59.9601   88.4875    9.5821 C.ar    1  UNL1        0.0581
     30 C          60.7559   88.0170   10.7633 C.ar    1  UNL1        0.1484
     31 C          61.5744   86.7639   10.6650 C.ar    1  UNL1        0.0554
     32 C          62.3701   86.2932   11.8463 C.ar    1  UNL1        0.0446
     33 C          63.1886   85.0401   11.7481 C.ar    1  UNL1        0.1726
     34 C          63.5085   81.7209   10.9456 C.3     1  UNL1        0.2526
     35 O          64.0300   83.0044   10.3703 O.3     1  UNL1       -0.4683
     36 O          63.9844   84.5695   12.9293 O.3     1  UNL1       -0.4684
     37 C          63.5142   84.8757   14.3204 C.3     1  UNL1        0.2526
@<TRIPOS>BOND
     1    34    35    1
     2    35    24    1
     3    24    25   ar
     4    25    26   ar
     5    26    27   ar
     6    27    28   ar
     7    28    29   ar
     8    29    30   ar
     9    30    23    1
    10    23     1    1
    11     1     2   ar
    12     2     3   ar
    13     3     4   ar
    14     4     5   ar
    15     5    12    1
    16    12    13    2
    17    12    14   am
    18    14    16    1
    19    16    17   ar
    20    17    18   ar
    21    18    19   ar
    22    19    20    1
    23    19    21   ar
    24    21    22   ar
    25     5     6   ar
    26     6     7   ar
    27     7     8   ar
    28     8     9   ar
    29     9    10   ar
    30    10    11    1
    31    30    31   ar
    32    31    32   ar
    33    32    33   ar
    34    33    36    1
    35    36    37    1
    36    33    24   ar
    37    31    26   ar
    38    10     1   ar
    39     9     4   ar
    40    22    16   ar
    41    14    15    1
@<TRIPOS>MOLECULE
*****
 37 41 0 0 0
SMALL
GASTEIGER

@<TRIPOS>ATOM
      1 C          63.2944   86.5521   14.2173 C.ar    1  UNL1        0.1725
      2 C          63.7104   87.3079   12.9902 C.ar    1  UNL1        0.0398
      3 C          64.0356   88.7692   13.0837 C.ar    1  UNL1        0.0034
      4 C          63.9448   89.4748   14.4043 C.ar    1  UNL1        0.0067
      5 C          64.2700   90.9361   14.4978 C.ar    1  UNL1        0.0537
      6 C          64.1793   91.6417   15.8184 C.ar    1  UNL1        0.0045
      7 C          63.7633   90.8858   17.0455 C.ar    1  UNL1        0.0002
      8 C          63.4381   89.4245   16.9520 C.ar    1  UNL1        0.0023
      9 C          63.5288   88.7190   15.6314 C.ar    1  UNL1        0.0307
     10 C          63.2036   87.2576   15.5379 C.ar    1  UNL1        0.1743
     11 F          62.7876   86.5018   16.7649 F       1  UNL1       -0.2010
     12 C          64.6860   91.6919   13.2707 C.2     1  UNL1        0.2495
     13 O          63.7718   91.7555   12.0832 O.2     1  UNL1       -0.2698
     14 N          66.0162   92.3840   13.2312 N.am    1  UNL1       -0.2804
     15 H          66.6161   92.3423   14.0106 H       1  UNL1        0.1552
     16 C          66.4322   93.1399   12.0041 C.ar    1  UNL1        0.0506
     17 C          66.1739   94.6143   11.9079 C.ar    1  UNL1        0.0155
     18 C          66.5899   95.3701   10.6808 C.ar    1  UNL1        0.0127
     19 C          67.2642   94.6515    9.5500 C.ar    1  UNL1        0.0578
     20 CL         67.6802   95.4073    8.3229 Cl      1  UNL1       -0.0822
     21 C          67.5224   93.1770    9.6462 C.ar    1  UNL1        0.0127
     22 C          67.1065   92.4212   10.8732 C.ar    1  UNL1        0.0155
     23 O          62.9691   85.0908   14.1238 O.3     1  UNL1       -0.4511
     24 C          62.1078   85.2730    8.7876 C.ar    1  UNL1        0.1739
     25 C          63.0601   84.1369    9.0167 C.ar    1  UNL1        0.0592
     26 C          63.5135   83.8073   10.4081 C.ar    1  UNL1        0.0875
     27 N          64.4657   82.6713   10.6372 N.ar    1  UNL1       -0.2435
     28 C          64.9191   82.3417   12.0285 C.ar    1  UNL1        0.1020
     29 C          64.4203   83.1482   13.1907 C.ar    1  UNL1        0.0581
     30 C          63.4680   84.2843   12.9616 C.ar    1  UNL1        0.1484
     31 C          63.0146   84.6138   11.5703 C.ar    1  UNL1        0.0554
     32 C          62.0623   85.7499   11.3411 C.ar    1  UNL1        0.0446
     33 C          61.6089   86.0795    9.9498 C.ar    1  UNL1        0.1726
     34 C          61.6514   84.5405    6.3370 C.3     1  UNL1        0.2526
     35 O          61.6544   85.6026    7.3962 O.3     1  UNL1       -0.4683
     36 O          60.6566   87.2156    9.7206 O.3     1  UNL1       -0.4684
     37 C          60.4452   88.2446   10.7913 C.3     1  UNL1        0.2526
@<TRIPOS>BOND
     1    34    35    1
     2    35    24    1
     3    24    25   ar
     4    25    26   ar
     5    26    27   ar
     6    27    28   ar
     7    28    29   ar
     8    29    30   ar
     9    30    23    1
    10    23     1    1
    11     1     2   ar
    12     2     3   ar
    13     3     4   ar
    14     4     5   ar
    15     5    12    1
    16    12    13    2
    17    12    14   am
    18    14    16    1
    19    16    17   ar
    20    17    18   ar
    21    18    19   ar
    22    19    20    1
    23    19    21   ar
    24    21    22   ar
    25     5     6   ar
    26     6     7   ar
    27     7     8   ar
    28     8     9   ar
    29     9    10   ar
    30    10    11    1
    31    30    31   ar
    32    31    32   ar
    33    32    33   ar
    34    33    36    1
    35    36    37    1
    36    33    24   ar
    37    31    26   ar
    38    10     1   ar
    39     9     4   ar
    40    22    16   ar
    41    14    15    1
@<TRIPOS>MOLECULE
*****
 37 41 0 0 0
SMALL
GASTEIGER

@<TRIPOS>ATOM
      1 C          63.7326   89.7008   14.7440 C.ar    1  UNL1        0.1725
      2 C          63.9102   88.5547   13.7927 C.ar    1  UNL1        0.0398
      3 C          63.7498   87.1448   14.2788 C.ar    1  UNL1        0.0034
      4 C          63.4118   86.8809   15.7162 C.ar    1  UNL1        0.0067
      5 C          63.2514   85.4708   16.2023 C.ar    1  UNL1        0.0537
      6 C          62.9135   85.2070   17.6397 C.ar    1  UNL1        0.0045
      7 C          62.7360   86.3531   18.5910 C.ar    1  UNL1        0.0002
      8 C          62.8964   87.7630   18.1049 C.ar    1  UNL1        0.0023
      9 C          63.2343   88.0269   16.6675 C.ar    1  UNL1        0.0307
     10 C          63.3947   89.4369   16.1814 C.ar    1  UNL1        0.1743
     11 F          63.2172   90.5829   17.1328 F       1  UNL1       -0.2010
     12 C          63.4289   84.3248   15.2510 C.2     1  UNL1        0.2495
     13 O          64.8023   83.7943   14.9638 O.2     1  UNL1       -0.2698
     14 N          62.2331   83.7093   14.5868 N.am    1  UNL1       -0.2804
     15 H          61.3318   84.0575   14.7753 H       1  UNL1        0.1552
     16 C          62.4106   82.5632   13.6355 C.ar    1  UNL1        0.0506
     17 C          62.1203   81.1624   14.0864 C.ar    1  UNL1        0.0155
     18 C          62.2978   80.0163   13.1351 C.ar    1  UNL1        0.0127
     19 C          62.7655   80.2711   11.7329 C.ar    1  UNL1        0.0578
     20 CL         62.9430   79.1250   10.7815 Cl      1  UNL1       -0.0822
     21 C          63.0558   81.6719   11.2820 C.ar    1  UNL1        0.0127
     22 C          62.8784   82.8180   12.2333 C.ar    1  UNL1        0.0155
     23 O          63.8930   91.1107   14.2579 O.3     1  UNL1       -0.4511
     24 C          67.7915   92.4946   10.7742 C.ar    1  UNL1        0.1739
     25 C          66.5260   92.4167    9.9728 C.ar    1  UNL1        0.0592
     26 C          65.2349   92.0512   10.6434 C.ar    1  UNL1        0.0875
     27 N          63.9693   91.9733    9.8420 N.ar    1  UNL1       -0.2435
     28 C          62.6783   91.6079   10.5126 C.ar    1  UNL1        0.1020
     29 C          62.6529   91.3203   11.9846 C.ar    1  UNL1        0.0581
     30 C          63.9185   91.3983   12.7860 C.ar    1  UNL1        0.1484
     31 C          65.2095   91.7637   12.1154 C.ar    1  UNL1        0.0554
     32 C          66.4751   91.8417   12.9167 C.ar    1  UNL1        0.0446
     33 C          67.7661   92.2071   12.2461 C.ar    1  UNL1        0.1726
     34 C          69.3116   92.4938    8.6671 C.3     1  UNL1        0.2526
     35 O          69.0826   92.8601   10.1036 O.3     1  UNL1       -0.4683
     36 O          69.0318   92.2851   13.0475 O.3     1  UNL1       -0.4684
     37 C          68.9674   92.4059   14.5413 C.3     1  UNL1        0.2526
@<TRIPOS>BOND
     1    34    35    1
     2    35    24    1
     3    24    25   ar
     4    25    26   ar
     5    26    27   ar
     6    27    28   ar
     7    28    29   ar
     8    29    30   ar
     9    30    23    1
    10    23     1    1
    11     1     2   ar
    12     2     3   ar
    13     3     4   ar
    14     4     5   ar
    15     5    12    1
    16    12    13    2
    17    12    14   am
    18    14    16    1
    19    16    17   ar
    20    17    18   ar
    21    18    19   ar
    22    19    20    1
    23    19    21   ar
    24    21    22   ar
    25     5     6   ar
    26     6     7   ar
    27     7     8   ar
    28     8     9   ar
    29     9    10   ar
    30    10    11    1
    31    30    31   ar
    32    31    32   ar
    33    32    33   ar
    34    33    36    1
    35    36    37    1
    36    33    24   ar
    37    31    26   ar
    38    10     1   ar
    39     9     4   ar
    40    22    16   ar
    41    14    15    1
@<TRIPOS>MOLECULE
*****
 37 41 0 0 0
SMALL
GASTEIGER

@<TRIPOS>ATOM
      1 C          63.3968   89.9130   13.4227 C.ar    1  UNL1        0.1725
      2 C          63.5437   88.6515   12.6244 C.ar    1  UNL1        0.0398
      3 C          63.5401   87.3210   13.3170 C.ar    1  UNL1        0.0034
      4 C          63.3896   87.2519   14.8078 C.ar    1  UNL1        0.0067
      5 C          63.3860   85.9213   15.5004 C.ar    1  UNL1        0.0537
      6 C          63.2356   85.8522   16.9912 C.ar    1  UNL1        0.0045
      7 C          63.0887   87.1137   17.7895 C.ar    1  UNL1        0.0002
      8 C          63.0923   88.4442   17.0969 C.ar    1  UNL1        0.0023
      9 C          63.2427   88.5133   15.6061 C.ar    1  UNL1        0.0307
     10 C          63.2463   89.8439   14.9135 C.ar    1  UNL1        0.1743
     11 F          63.0995   91.1053   15.7118 F       1  UNL1       -0.2010
     12 C          63.5329   84.6599   14.7021 C.2     1  UNL1        0.2495
     13 O          64.8905   84.0560   14.4968 O.2     1  UNL1       -0.2698
     14 N          62.3221   84.0024   14.1091 N.am    1  UNL1       -0.2804
     15 H          61.4311   84.3988   14.2439 H       1  UNL1        0.1552
     16 C          62.4690   82.7409   13.3108 C.ar    1  UNL1        0.0506
     17 C          62.2036   81.4117   13.9532 C.ar    1  UNL1        0.0155
     18 C          62.3504   80.1503   13.1550 C.ar    1  UNL1        0.0127
     19 C          62.7626   80.2181   11.7144 C.ar    1  UNL1        0.0578
     20 CL         62.9094   78.9566   10.9161 Cl      1  UNL1       -0.0822
     21 C          63.0279   81.5473   11.0720 C.ar    1  UNL1        0.0127
     22 C          62.8811   82.8088   11.8702 C.ar    1  UNL1        0.0155
     23 O          63.4004   91.2435   12.7301 O.3     1  UNL1       -0.4511
     24 C          68.0176   93.0172   14.9177 C.ar    1  UNL1        0.1739
     25 C          68.1806   93.1555   13.4331 C.ar    1  UNL1        0.0592
     26 C          67.0670   92.7467   12.5149 C.ar    1  UNL1        0.0875
     27 N          67.2300   92.8850   11.0303 N.ar    1  UNL1       -0.2435
     28 C          66.1165   92.4762   10.1122 C.ar    1  UNL1        0.1020
     29 C          64.8400   91.9290   10.6788 C.ar    1  UNL1        0.0581
     30 C          64.6769   91.7907   12.1635 C.ar    1  UNL1        0.1484
     31 C          65.7905   92.1995   13.0815 C.ar    1  UNL1        0.0554
     32 C          65.6275   92.0612   14.5663 C.ar    1  UNL1        0.0446
     33 C          66.7410   92.4700   15.4843 C.ar    1  UNL1        0.1726
     34 C          69.2449   94.8516   16.2884 C.3     1  UNL1        0.2526
     35 O          69.1311   93.4260   15.8359 O.3     1  UNL1       -0.4683
     36 O          66.5780   92.3317   16.9691 O.3     1  UNL1       -0.4684
     37 C          65.2116   92.4041   17.5835 C.3     1  UNL1        0.2526
@<TRIPOS>BOND
     1    34    35    1
     2    35    24    1
     3    24    25   ar
     4    25    26   ar
     5    26    27   ar
     6    27    28   ar
     7    28    29   ar
     8    29    30   ar
     9    30    23    1
    10    23     1    1
    11     1     2   ar
    12     2     3   ar
    13     3     4   ar
    14     4     5   ar
    15     5    12    1
    16    12    13    2
    17    12    14   am
    18    14    16    1
    19    16    17   ar
    20    17    18   ar
    21    18    19   ar
    22    19    20    1
    23    19    21   ar
    24    21    22   ar
    25     5     6   ar
    26     6     7   ar
    27     7     8   ar
    28     8     9   ar
    29     9    10   ar
    30    10    11    1
    31    30    31   ar
    32    31    32   ar
    33    32    33   ar
    34    33    36    1
    35    36    37    1
    36    33    24   ar
    37    31    26   ar
    38    10     1   ar
    39     9     4   ar
    40    22    16   ar
    41    14    15    1
@<TRIPOS>MOLECULE
*****
 37 41 0 0 0
SMALL
GASTEIGER

@<TRIPOS>ATOM
      1 C          63.5662   89.1581   13.9809 C.ar    1  UNL1        0.1725
      2 C          63.8045   89.7153   12.6087 C.ar    1  UNL1        0.0398
      3 C          64.6361   90.9515   12.4352 C.ar    1  UNL1        0.0034
      4 C          65.2295   91.6306   13.6339 C.ar    1  UNL1        0.0067
      5 C          66.0611   92.8669   13.4603 C.ar    1  UNL1        0.0537
      6 C          66.6545   93.5459   14.6590 C.ar    1  UNL1        0.0045
      7 C          66.4163   92.9887   16.0312 C.ar    1  UNL1        0.0002
      8 C          65.5847   91.7525   16.2046 C.ar    1  UNL1        0.0023
      9 C          64.9913   91.0734   15.0060 C.ar    1  UNL1        0.0307
     10 C          64.1596   89.8371   15.1795 C.ar    1  UNL1        0.1743
     11 F          63.9214   89.2799   16.5517 F       1  UNL1       -0.2010
     12 C          66.2993   93.4241   12.0882 C.2     1  UNL1        0.2495
     13 O          67.3089   92.7826   11.1831 O.2     1  UNL1       -0.2698
     14 N          65.5279   94.6227   11.6212 N.am    1  UNL1       -0.2804
     15 H          64.8653   95.0437   12.2153 H       1  UNL1        0.1552
     16 C          65.7661   95.1799   10.2490 C.ar    1  UNL1        0.0506
     17 C          66.8674   94.6252    9.3950 C.ar    1  UNL1        0.0155
     18 C          67.1056   95.1823    8.0229 C.ar    1  UNL1        0.0127
     19 C          66.2425   96.2943    7.5048 C.ar    1  UNL1        0.0578
     20 CL         66.4806   96.8515    6.1326 Cl      1  UNL1       -0.0822
     21 C          65.1411   96.8491    8.3588 C.ar    1  UNL1        0.0127
     22 C          64.9030   96.2919    9.7309 C.ar    1  UNL1        0.0155
     23 O          62.7346   87.9218   14.1544 O.3     1  UNL1       -0.4511
     24 C          63.4830   83.5183   11.1049 C.ar    1  UNL1        0.1739
     25 C          64.1197   83.2199   12.4298 C.ar    1  UNL1        0.0592
     26 C          64.0918   84.2462   13.5235 C.ar    1  UNL1        0.0875
     27 N          64.7286   83.9479   14.8484 N.ar    1  UNL1       -0.2435
     28 C          64.7007   84.9741   15.9420 C.ar    1  UNL1        0.1020
     29 C          64.0360   86.2988   15.7106 C.ar    1  UNL1        0.0581
     30 C          63.3993   86.5972   14.3857 C.ar    1  UNL1        0.1484
     31 C          63.4272   85.5709   13.2921 C.ar    1  UNL1        0.0554
     32 C          62.7904   85.8693   11.9671 C.ar    1  UNL1        0.0446
     33 C          62.8183   84.8430   10.8736 C.ar    1  UNL1        0.1726
     34 C          63.2156   81.0549   10.3237 C.3     1  UNL1        0.2526
     35 O          63.5108   82.4920   10.0113 O.3     1  UNL1       -0.4683
     36 O          62.1815   85.1414    9.5485 O.3     1  UNL1       -0.4684
     37 C          63.0335   85.2847    8.3223 C.3     1  UNL1        0.2526
@<TRIPOS>BOND
     1    34    35    1
     2    35    24    1
     3    24    25   ar
     4    25    26   ar
     5    26    27   ar
     6    27    28   ar
     7    28    29   ar
     8    29    30   ar
     9    30    23    1
    10    23     1    1
    11     1     2   ar
    12     2     3   ar
    13     3     4   ar
    14     4     5   ar
    15     5    12    1
    16    12    13    2
    17    12    14   am
    18    14    16    1
    19    16    17   ar
    20    17    18   ar
    21    18    19   ar
    22    19    20    1
    23    19    21   ar
    24    21    22   ar
    25     5     6   ar
    26     6     7   ar
    27     7     8   ar
    28     8     9   ar
    29     9    10   ar
    30    10    11    1
    31    30    31   ar
    32    31    32   ar
    33    32    33   ar
    34    33    36    1
    35    36    37    1
    36    33    24   ar
    37    31    26   ar
    38    10     1   ar
    39     9     4   ar
    40    22    16   ar
    41    14    15    1
