@<TRIPOS>MOLECULE
*****
 18 19 0 0 0
SMALL
GASTEIGER

@<TRIPOS>ATOM
      1 C          63.5284   83.8011   13.4801 C.ar    1  UNL1        0.0609
      2 C          63.8145   82.7378   14.4987 C.ar    1  UNL1        0.1071
      3 N          63.5410   81.2984   14.1773 N.ar    1  UNL1       -0.2417
      4 C          62.9814   80.9222   12.8374 C.ar    1  UNL1        0.0989
      5 C          62.6953   81.9855   11.8189 C.ar    1  UNL1        0.0213
      6 C          62.9688   83.4250   12.1402 C.ar    1  UNL1        0.0122
      7 C          62.6827   84.4883   11.1216 C.ar    1  UNL1        0.0199
      8 C          63.3287   84.4246    9.7693 C.ar    1  UNL1        0.0032
      9 C          63.0426   85.4879    8.7507 C.ar    1  UNL1        0.0207
     10 C          62.1106   86.6148    9.0843 C.ar    1  UNL1        0.0989
     11 N          61.4646   86.6785   10.4366 N.ar    1  UNL1       -0.2423
     12 C          61.7507   85.6152   11.4552 C.ar    1  UNL1        0.0989
     13 C          64.0754   86.6799   14.1228 C.1     1  UNL1       -0.0689
     14 C          63.8019   85.2405   13.8014 C.1     1  UNL1       -0.0614
     15 N          63.5420   88.8191   15.4973 N.3     1  UNL1       -0.3102
     16 C          64.3489   88.1194   14.4441 C.3     1  UNL1        0.1432
     17 H          63.8603   89.7843   15.5841 H       1  UNL1        0.1198
     18 H          63.6604   88.3405   16.3902 H       1  UNL1        0.1198
@<TRIPOS>BOND
     1    15    16    1
     2    16    13    1
     3    13    14    3
     4    14     1    1
     5     1     2   ar
     6     2     3   ar
     7     3     4   ar
     8     4     5   ar
     9     5     6   ar
    10     6     7    1
    11     7     8   ar
    12     8     9   ar
    13     9    10   ar
    14    10    11   ar
    15    11    12   ar
    16     6     1   ar
    17    12     7   ar
    18    15    17    1
    19    15    18    1
@<TRIPOS>MOLECULE
*****
 18 19 0 0 0
SMALL
GASTEIGER

@<TRIPOS>ATOM
      1 C          64.2180   90.7522   13.0006 C.ar    1  UNL1        0.0609
      2 C          64.7011   91.9873   12.2999 C.ar    1  UNL1        0.1071
      3 N          65.6389   92.9272   12.9978 N.ar    1  UNL1       -0.2417
      4 C          66.0936   92.6320   14.3964 C.ar    1  UNL1        0.0989
      5 C          65.6105   91.3969   15.0971 C.ar    1  UNL1        0.0213
      6 C          64.6726   90.4570   14.3992 C.ar    1  UNL1        0.0122
      7 C          64.1895   89.2219   15.1000 C.ar    1  UNL1        0.0199
      8 C          64.6144   87.8684   14.6127 C.ar    1  UNL1        0.0032
      9 C          64.1313   86.6332   15.3134 C.ar    1  UNL1        0.0207
     10 C          63.2232   86.7516   16.5015 C.ar    1  UNL1        0.0989
     11 N          62.7983   88.1051   16.9888 N.ar    1  UNL1       -0.2423
     12 C          63.2815   89.3403   16.2880 C.ar    1  UNL1        0.0989
     13 C          62.3423   88.8724   11.6049 C.1     1  UNL1       -0.0689
     14 C          63.2801   89.8123   12.3027 C.1     1  UNL1       -0.0614
     15 N          60.0185   87.7222   11.4407 N.3     1  UNL1       -0.3102
     16 C          61.4045   87.9325   10.9070 C.3     1  UNL1        0.1432
     17 H          59.5231   87.0566   10.8475 H       1  UNL1        0.1198
     18 H          59.5178   88.6109   11.4462 H       1  UNL1        0.1198
@<TRIPOS>BOND
     1    15    16    1
     2    16    13    1
     3    13    14    3
     4    14     1    1
     5     1     2   ar
     6     2     3   ar
     7     3     4   ar
     8     4     5   ar
     9     5     6   ar
    10     6     7    1
    11     7     8   ar
    12     8     9   ar
    13     9    10   ar
    14    10    11   ar
    15    11    12   ar
    16     6     1   ar
    17    12     7   ar
    18    15    17    1
    19    15    18    1
@<TRIPOS>MOLECULE
*****
 18 19 0 0 0
SMALL
GASTEIGER

@<TRIPOS>ATOM
      1 C          64.7005   91.6066   12.5119 C.ar    1  UNL1        0.0609
      2 C          63.4541   90.9496   11.9975 C.ar    1  UNL1        0.1071
      3 N          62.7646   89.9015   12.8197 N.ar    1  UNL1       -0.2417
      4 C          63.3216   89.5103   14.1564 C.ar    1  UNL1        0.0989
      5 C          64.5681   90.1673   14.6708 C.ar    1  UNL1        0.0213
      6 C          65.2575   91.2155   13.8486 C.ar    1  UNL1        0.0122
      7 C          66.5040   91.8725   14.3631 C.ar    1  UNL1        0.0199
      8 C          66.4696   92.6424   15.6499 C.ar    1  UNL1        0.0032
      9 C          67.7160   93.2994   16.1644 C.ar    1  UNL1        0.0207
     10 C          68.9970   93.1865   15.3920 C.ar    1  UNL1        0.0989
     11 N          69.0314   92.4166   14.1052 N.ar    1  UNL1       -0.2423
     12 C          67.7849   91.7596   13.5907 C.ar    1  UNL1        0.0989
     13 C          66.0794   93.7029   10.8674 C.1     1  UNL1       -0.0689
     14 C          65.3899   92.6547   11.6897 C.1     1  UNL1       -0.0614
     15 N          68.1561   94.5073    9.5295 N.3     1  UNL1       -0.3102
     16 C          66.7688   94.7510   10.0452 C.3     1  UNL1        0.1432
     17 H          68.4674   95.3182    8.9948 H       1  UNL1        0.1198
     18 H          68.1555   93.6834    8.9282 H       1  UNL1        0.1198
@<TRIPOS>BOND
     1    15    16    1
     2    16    13    1
     3    13    14    3
     4    14     1    1
     5     1     2   ar
     6     2     3   ar
     7     3     4   ar
     8     4     5   ar
     9     5     6   ar
    10     6     7    1
    11     7     8   ar
    12     8     9   ar
    13     9    10   ar
    14    10    11   ar
    15    11    12   ar
    16     6     1   ar
    17    12     7   ar
    18    15    17    1
    19    15    18    1
@<TRIPOS>MOLECULE
*****
 18 19 0 0 0
SMALL
GASTEIGER

@<TRIPOS>ATOM
      1 C          61.1268   88.1166    9.6606 C.ar    1  UNL1        0.0609
      2 C          60.2760   89.0889    8.8985 C.ar    1  UNL1        0.1071
      3 N          59.4256   88.6092    7.7598 N.ar    1  UNL1       -0.2417
      4 C          59.4260   87.1573    7.3831 C.ar    1  UNL1        0.0989
      5 C          60.2768   86.1851    8.1452 C.ar    1  UNL1        0.0213
      6 C          61.1272   86.6647    9.2839 C.ar    1  UNL1        0.0122
      7 C          61.9781   85.6924   10.0460 C.ar    1  UNL1        0.0199
      8 C          63.0033   84.8679    9.3256 C.ar    1  UNL1        0.0032
      9 C          63.8541   83.8956   10.0876 C.ar    1  UNL1        0.0207
     10 C          63.6797   83.7477   11.5701 C.ar    1  UNL1        0.0989
     11 N          62.6544   84.5722   12.2906 N.ar    1  UNL1       -0.2423
     12 C          61.8036   85.5446   11.5285 C.ar    1  UNL1        0.0989
     13 C          62.8277   89.0759   11.9381 C.1     1  UNL1       -0.0689
     14 C          61.9773   88.5963   10.7993 C.1     1  UNL1       -0.0614
     15 N          63.1071   90.4985   14.0940 N.3     1  UNL1       -0.3102
     16 C          63.6781   89.5556   13.0768 C.3     1  UNL1        0.1432
     17 H          63.8186   90.7183   14.7911 H       1  UNL1        0.1198
     18 H          62.3067   90.0616   14.5512 H       1  UNL1        0.1198
@<TRIPOS>BOND
     1    15    16    1
     2    16    13    1
     3    13    14    3
     4    14     1    1
     5     1     2   ar
     6     2     3   ar
     7     3     4   ar
     8     4     5   ar
     9     5     6   ar
    10     6     7    1
    11     7     8   ar
    12     8     9   ar
    13     9    10   ar
    14    10    11   ar
    15    11    12   ar
    16     6     1   ar
    17    12     7   ar
    18    15    17    1
    19    15    18    1
@<TRIPOS>MOLECULE
*****
 18 19 0 0 0
SMALL
GASTEIGER

@<TRIPOS>ATOM
      1 C          62.6698   86.6192   11.4597 C.ar    1  UNL1        0.0609
      2 C          63.0440   87.4679   12.6385 C.ar    1  UNL1        0.1071
      3 N          63.0180   88.9634   12.5243 N.ar    1  UNL1       -0.2417
      4 C          62.6178   89.6100   11.2314 C.ar    1  UNL1        0.0989
      5 C          62.2436   88.7612   10.0527 C.ar    1  UNL1        0.0213
      6 C          62.2697   87.2658   10.1668 C.ar    1  UNL1        0.0122
      7 C          61.8955   86.4170    8.9880 C.ar    1  UNL1        0.0199
      8 C          62.9363   85.5788    8.3068 C.ar    1  UNL1        0.0032
      9 C          62.5622   84.7301    7.1280 C.ar    1  UNL1        0.0207
     10 C          61.1472   84.7195    6.6303 C.ar    1  UNL1        0.0989
     11 N          60.1063   85.5576    7.3115 N.ar    1  UNL1       -0.2423
     12 C          60.4805   86.4064    8.4904 C.ar    1  UNL1        0.0989
     13 C          62.7218   83.6283   11.6880 C.1     1  UNL1       -0.0689
     14 C          62.6958   85.1237   11.5739 C.1     1  UNL1       -0.0614
     15 N          62.1272   81.4605   12.9907 N.3     1  UNL1       -0.3102
     16 C          62.7478   82.1329   11.8022 C.3     1  UNL1        0.1432
     17 H          62.2355   80.4500   12.9047 H       1  UNL1        0.1198
     18 H          61.1351   81.6937   13.0336 H       1  UNL1        0.1198
@<TRIPOS>BOND
     1    15    16    1
     2    16    13    1
     3    13    14    3
     4    14     1    1
     5     1     2   ar
     6     2     3   ar
     7     3     4   ar
     8     4     5   ar
     9     5     6   ar
    10     6     7    1
    11     7     8   ar
    12     8     9   ar
    13     9    10   ar
    14    10    11   ar
    15    11    12   ar
    16     6     1   ar
    17    12     7   ar
    18    15    17    1
    19    15    18    1
@<TRIPOS>MOLECULE
*****
 18 19 0 0 0
SMALL
GASTEIGER

@<TRIPOS>ATOM
      1 C          64.4006   91.2327   13.0665 C.ar    1  UNL1        0.0609
      2 C          65.5319   92.2085   13.1999 C.ar    1  UNL1        0.1071
      3 N          65.9804   93.0042   12.0100 N.ar    1  UNL1       -0.2417
      4 C          65.2975   92.8240   10.6867 C.ar    1  UNL1        0.0989
      5 C          64.1662   91.8482   10.5533 C.ar    1  UNL1        0.0213
      6 C          63.7178   91.0525   11.7432 C.ar    1  UNL1        0.0122
      7 C          62.5864   90.0766   11.6097 C.ar    1  UNL1        0.0199
      8 C          61.1856   90.5750   11.4113 C.ar    1  UNL1        0.0032
      9 C          60.0542   89.5992   11.2778 C.ar    1  UNL1        0.0207
     10 C          60.3237   88.1250   11.3427 C.ar    1  UNL1        0.0989
     11 N          61.7245   87.6266   11.5411 N.ar    1  UNL1       -0.2423
     12 C          62.8559   88.6025   11.6745 C.ar    1  UNL1        0.0989
     13 C          63.5038   89.6413   15.4462 C.1     1  UNL1       -0.0689
     14 C          63.9522   90.4370   14.2564 C.1     1  UNL1       -0.0614
     15 N          63.1141   87.3472   16.6017 N.3     1  UNL1       -0.3102
     16 C          63.0553   88.8456   16.6361 C.3     1  UNL1        0.1432
     17 H          62.7737   86.9732   17.4875 H       1  UNL1        0.1198
     18 H          64.0781   87.0481   16.4544 H       1  UNL1        0.1198
@<TRIPOS>BOND
     1    15    16    1
     2    16    13    1
     3    13    14    3
     4    14     1    1
     5     1     2   ar
     6     2     3   ar
     7     3     4   ar
     8     4     5   ar
     9     5     6   ar
    10     6     7    1
    11     7     8   ar
    12     8     9   ar
    13     9    10   ar
    14    10    11   ar
    15    11    12   ar
    16     6     1   ar
    17    12     7   ar
    18    15    17    1
    19    15    18    1
@<TRIPOS>MOLECULE
*****
 18 19 0 0 0
SMALL
GASTEIGER

@<TRIPOS>ATOM
      1 C          62.9594   86.6393   12.0995 C.ar    1  UNL1        0.0609
      2 C          63.1495   88.0448   12.5876 C.ar    1  UNL1        0.1071
      3 N          63.8690   88.2995   13.8789 N.ar    1  UNL1       -0.2417
      4 C          64.3983   87.1486   14.6822 C.ar    1  UNL1        0.0989
      5 C          64.2082   85.7431   14.1941 C.ar    1  UNL1        0.0213
      6 C          63.4887   85.4884   12.9027 C.ar    1  UNL1        0.0122
      7 C          63.2986   84.0828   12.4146 C.ar    1  UNL1        0.0199
      8 C          63.9316   83.6437   11.1276 C.ar    1  UNL1        0.0032
      9 C          63.7416   82.2382   10.6395 C.ar    1  UNL1        0.0207
     10 C          62.9184   81.2716   11.4385 C.ar    1  UNL1        0.0989
     11 N          62.2853   81.7107   12.7255 N.ar    1  UNL1       -0.2423
     12 C          62.4755   83.1163   13.2136 C.ar    1  UNL1        0.0989
     13 C          61.5205   86.1300    9.5168 C.1     1  UNL1       -0.0689
     14 C          62.2399   86.3846   10.8082 C.1     1  UNL1       -0.0614
     15 N          59.3830   86.3331    8.0541 N.3     1  UNL1       -0.3102
     16 C          60.8010   85.8753    8.2255 C.3     1  UNL1        0.1432
     17 H          59.0538   86.0789    7.1227 H       1  UNL1        0.1198
     18 H          59.3367   87.3459    8.1664 H       1  UNL1        0.1198
@<TRIPOS>BOND
     1    15    16    1
     2    16    13    1
     3    13    14    3
     4    14     1    1
     5     1     2   ar
     6     2     3   ar
     7     3     4   ar
     8     4     5   ar
     9     5     6   ar
    10     6     7    1
    11     7     8   ar
    12     8     9   ar
    13     9    10   ar
    14    10    11   ar
    15    11    12   ar
    16     6     1   ar
    17    12     7   ar
    18    15    17    1
    19    15    18    1
@<TRIPOS>MOLECULE
*****
 18 19 0 0 0
SMALL
GASTEIGER

@<TRIPOS>ATOM
      1 C          62.8226   87.9508   11.7582 C.ar    1  UNL1        0.0609
      2 C          63.4952   88.8612   12.7423 C.ar    1  UNL1        0.1071
      3 N          63.5328   90.3397   12.4920 N.ar    1  UNL1       -0.2417
      4 C          62.8977   90.9078   11.2576 C.ar    1  UNL1        0.0989
      5 C          62.2250   89.9974   10.2734 C.ar    1  UNL1        0.0213
      6 C          62.1875   88.5189   10.5237 C.ar    1  UNL1        0.0122
      7 C          61.5148   87.6084    9.5395 C.ar    1  UNL1        0.0199
      8 C          62.3095   86.5524    8.8302 C.ar    1  UNL1        0.0032
      9 C          61.6369   85.6419    7.8460 C.ar    1  UNL1        0.0207
     10 C          60.1694   85.7876    7.5711 C.ar    1  UNL1        0.0989
     11 N          59.3747   86.8436    8.2804 N.ar    1  UNL1       -0.2423
     12 C          60.0474   87.7541    9.2646 C.ar    1  UNL1        0.0989
     13 C          62.7475   84.9938   12.2587 C.1     1  UNL1       -0.0689
     14 C          62.7851   86.4723   12.0084 C.1     1  UNL1       -0.0614
     15 N          63.9869   82.7297   12.5546 N.3     1  UNL1       -0.3102
     16 C          62.7100   83.5153   12.5090 C.3     1  UNL1        0.1432
     17 H          63.7759   81.7479   12.7334 H       1  UNL1        0.1198
     18 H          64.5818   83.0908   13.3004 H       1  UNL1        0.1198
@<TRIPOS>BOND
     1    15    16    1
     2    16    13    1
     3    13    14    3
     4    14     1    1
     5     1     2   ar
     6     2     3   ar
     7     3     4   ar
     8     4     5   ar
     9     5     6   ar
    10     6     7    1
    11     7     8   ar
    12     8     9   ar
    13     9    10   ar
    14    10    11   ar
    15    11    12   ar
    16     6     1   ar
    17    12     7   ar
    18    15    17    1
    19    15    18    1
@<TRIPOS>MOLECULE
*****
 18 19 0 0 0
SMALL
GASTEIGER

@<TRIPOS>ATOM
      1 C          65.9820   92.1169   14.0721 C.ar    1  UNL1        0.0609
      2 C          66.6513   92.8159   15.2180 C.ar    1  UNL1        0.1071
      3 N          66.0483   92.7534   16.5901 N.ar    1  UNL1       -0.2417
      4 C          64.7760   91.9918   16.8161 C.ar    1  UNL1        0.0989
      5 C          64.1067   91.2928   15.6702 C.ar    1  UNL1        0.0213
      6 C          64.7097   91.3553   14.2981 C.ar    1  UNL1        0.0122
      7 C          64.0403   90.6561   13.1521 C.ar    1  UNL1        0.0199
      8 C          63.7131   91.4136   11.8995 C.ar    1  UNL1        0.0032
      9 C          63.0437   90.7146   10.7536 C.ar    1  UNL1        0.0207
     10 C          62.7016   89.2579   10.8602 C.ar    1  UNL1        0.0989
     11 N          63.0289   88.5004   12.1128 N.ar    1  UNL1       -0.2423
     12 C          63.6983   89.1996   13.2588 C.ar    1  UNL1        0.0989
     13 C          67.1880   92.2419   11.3280 C.1     1  UNL1       -0.0689
     14 C          66.5850   92.1794   12.7000 C.1     1  UNL1       -0.0614
     15 N          69.1473   92.9144    9.7599 N.3     1  UNL1       -0.3102
     16 C          67.7911   92.3044    9.9560 C.3     1  UNL1        0.1432
     17 H          69.3991   92.8731    8.7723 H       1  UNL1        0.1198
     18 H          69.8350   92.3977   10.3080 H       1  UNL1        0.1198
@<TRIPOS>BOND
     1    15    16    1
     2    16    13    1
     3    13    14    3
     4    14     1    1
     5     1     2   ar
     6     2     3   ar
     7     3     4   ar
     8     4     5   ar
     9     5     6   ar
    10     6     7    1
    11     7     8   ar
    12     8     9   ar
    13     9    10   ar
    14    10    11   ar
    15    11    12   ar
    16     6     1   ar
    17    12     7   ar
    18    15    17    1
    19    15    18    1
