@<TRIPOS>MOLECULE
*****
 63 69 0 0 0
SMALL
GASTEIGER

@<TRIPOS>ATOM
      1 N          62.3700   94.6571   -3.3826 N.3     1  UNL1       -0.1862
      2 C          61.3087   94.2184   -4.3475 C.3     1  UNL1        0.1775
      3 C          59.9930   93.7114   -3.8358 C.2     1  UNL1        0.2452
      4 O          58.9316   93.2726   -4.8008 O.2     1  UNL1       -0.2732
      5 N          59.7386   93.6431   -2.3591 N.am    1  UNL1       -0.2541
      6 C          58.4229   93.1361   -1.8474 C.3     1  UNL1        0.1577
      7 C          58.1685   93.0678   -0.3707 C.2     1  UNL1        0.2445
      8 O          56.8528   92.5608    0.1411 O.2     1  UNL1       -0.2731
      9 N          59.2298   93.5066    0.5943 N.am    1  UNL1       -0.2705
     10 C          60.5455   94.0136    0.0825 C.3     1  UNL1        0.1359
     11 C          60.7999   94.0819   -1.3942 C.3     1  UNL1        0.1908
     12 N          62.1156   94.5889   -1.9060 N.am    1  UNL1       -0.1863
     13 C          63.1769   95.0277   -0.9410 C.2     1  UNL1        0.3191
     14 O          62.9225   94.9594    0.5357 O.2     1  UNL1       -0.2512
     15 N          64.4926   95.5347   -1.4527 N.am    1  UNL1       -0.2836
     16 H          64.6595   95.5795   -2.4220 H       1  UNL1        0.1513
     17 C          58.9754   93.4383    2.0709 C.3     1  UNL1        0.1217
     18 C          59.8187   92.5500    2.9370 C.ar    1  UNL1        0.0135
     19 C          61.2956   92.4495    2.6949 C.ar    1  UNL1       -0.0012
     20 C          62.1388   91.5613    3.5609 C.ar    1  UNL1       -0.0002
     21 C          61.5051   90.7736    4.6690 C.ar    1  UNL1        0.0015
     22 C          60.0282   90.8742    4.9111 C.ar    1  UNL1        0.0170
     23 C          59.1298   90.2224    5.9201 C.ar    1  UNL1        0.0186
     24 C          57.7314   90.7078    5.6777 C.ar    1  UNL1        0.0759
     25 N          57.7655   91.6595    4.5189 N.ar    1  UNL1       -0.3242
     26 C          56.5870   92.3817    3.9362 C.3     1  UNL1        0.1305
     27 C          59.1850   91.7624    4.0451 C.ar    1  UNL1        0.0575
     28 C          59.5552   89.2550    6.9847 C.ar    1  UNL1        0.0016
     29 C          60.3636   89.7341    8.1539 C.ar    1  UNL1        0.0013
     30 C          60.7889   88.7667    9.2184 C.ar    1  UNL1        0.0147
     31 C          60.4060   87.3202    9.1137 C.ar    1  UNL1        0.0503
     32 C          59.5976   86.8410    7.9445 C.ar    1  UNL1        0.0147
     33 C          59.1723   87.8085    6.8801 C.ar    1  UNL1        0.0013
     34 N          60.8314   86.3529   10.1783 N.am    1  UNL1       -0.2839
     35 C          62.1385   85.6276   10.0538 C.2     1  UNL1        0.2261
     36 O          63.0202   85.8697    8.8647 O.2     1  UNL1       -0.2748
     37 H          60.2527   86.1940   10.9587 H       1  UNL1        0.1549
     38 C          62.5638   84.6603   11.1184 C.3     1  UNL1        0.0854
     39 C          63.3257   85.1489   12.3146 C.3     1  UNL1        0.0096
     40 C          63.8454   84.1689   13.3243 C.3     1  UNL1        0.0005
     41 C          62.8879   83.3262   14.1136 C.3     1  UNL1        0.0000
     42 C          62.2038   82.1600   13.4639 C.3     1  UNL1        0.0000
     43 C          63.0174   81.0782   12.8176 C.3     1  UNL1        0.0000
     44 C          63.9289   81.4078   11.6728 C.3     1  UNL1        0.0000
     45 C          57.3616   92.6973   -2.8123 C.3     1  UNL1        0.0556
     46 C          56.3631   93.6893   -3.3310 C.ar    1  UNL1       -0.0198
     47 C          56.1307   93.8175   -4.8073 C.ar    1  UNL1       -0.0011
     48 C          55.1322   94.8094   -5.3260 C.ar    1  UNL1        0.0363
     49 C          54.3661   95.6732   -4.3685 C.ar    1  UNL1        0.1337
     50 O          53.3677   96.6651   -4.8872 O.3     1  UNL1       -0.5055
     51 C          54.5985   95.5450   -2.8921 C.ar    1  UNL1        0.0363
     52 C          55.5970   94.5531   -2.3733 C.ar    1  UNL1       -0.0011
     53 H          53.2225   96.7452   -5.8094 H       1  UNL1        0.2922
     54 C          65.5539   95.9734   -0.4878 C.3     1  UNL1        0.1177
     55 C          65.3873   95.7127    0.9799 C.ar    1  UNL1       -0.0025
     56 C          65.1733   94.3125    1.4734 C.ar    1  UNL1       -0.0026
     57 C          65.0067   94.0518    2.9411 C.ar    1  UNL1       -0.0003
     58 C          65.0540   95.1913    3.9154 C.ar    1  UNL1       -0.0000
     59 C          65.2680   96.5916    3.4219 C.ar    1  UNL1       -0.0003
     60 C          65.4346   96.8523    1.9542 C.ar    1  UNL1       -0.0026
     61 C          63.6856   95.1642   -3.8944 C.3     1  UNL1        0.1188
     62 C          64.8286   96.4248   -5.8577 C.2     1  UNL1       -0.0034
     63 C          63.7238   96.3211   -4.8483 C.2     1  UNL1       -0.0071
@<TRIPOS>BOND
     1    62    63    2
     2    63    61    1
     3    61     1    1
     4     1     2    1
     5     2     3    1
     6     3     4    2
     7     3     5   am
     8     5     6    1
     9     6    45    1
    10    45    46    1
    11    46    47   ar
    12    47    48   ar
    13    48    49   ar
    14    49    50    1
    15    49    51   ar
    16    51    52   ar
    17     6     7    1
    18     7     8    2
    19     7     9   am
    20     9    17    1
    21    17    18    1
    22    18    19   ar
    23    19    20   ar
    24    20    21   ar
    25    21    22   ar
    26    22    23   ar
    27    23    28    1
    28    28    29   ar
    29    29    30   ar
    30    30    31   ar
    31    31    34    1
    32    34    35   am
    33    35    36    2
    34    35    38    1
    35    38    39    1
    36    39    40    1
    37    40    41    1
    38    41    42    1
    39    42    43    1
    40    43    44    1
    41    31    32   ar
    42    32    33   ar
    43    23    24   ar
    44    24    25   ar
    45    25    26    1
    46    25    27   ar
    47     9    10    1
    48    11    10    1
    49    11    12    1
    50    12    13   am
    51    13    14    2
    52    13    15   am
    53    15    54    1
    54    54    55    1
    55    55    56   ar
    56    56    57   ar
    57    57    58   ar
    58    58    59   ar
    59    59    60   ar
    60    12     1    1
    61    60    55   ar
    62    11     5    1
    63    52    46   ar
    64    27    18   ar
    65    27    22   ar
    66    33    28   ar
    67    50    53    1
    68    34    37    1
    69    15    16    1
@<TRIPOS>MOLECULE
*****
 63 69 0 0 0
SMALL
GASTEIGER

@<TRIPOS>ATOM
      1 N          62.3562   94.1569   -3.2165 N.3     1  UNL1       -0.1862
      2 C          61.2451   94.2215   -4.2221 C.3     1  UNL1        0.1775
      3 C          59.8208   94.0693   -3.7770 C.2     1  UNL1        0.2452
      4 O          58.7097   94.1338   -4.7827 O.2     1  UNL1       -0.2732
      5 N          59.5075   93.8525   -2.3262 N.am    1  UNL1       -0.2541
      6 C          58.0832   93.7004   -1.8810 C.3     1  UNL1        0.1577
      7 C          57.7699   93.4836   -0.4303 C.2     1  UNL1        0.2445
      8 O          56.3456   93.3314    0.0149 O.2     1  UNL1       -0.2731
      9 N          58.8810   93.4191    0.5755 N.am    1  UNL1       -0.2705
     10 C          60.3053   93.5713    0.1303 C.3     1  UNL1        0.1359
     11 C          60.6186   93.7880   -1.3205 C.3     1  UNL1        0.1908
     12 N          62.0429   93.9402   -1.7657 N.am    1  UNL1       -0.1863
     13 C          63.1540   93.8757   -0.7599 C.2     1  UNL1        0.3191
     14 O          62.8407   93.6590    0.6908 O.2     1  UNL1       -0.2512
     15 N          64.5783   94.0279   -1.2051 N.am    1  UNL1       -0.2836
     16 H          64.7839   94.1701   -2.1573 H       1  UNL1        0.1513
     17 C          58.5677   93.2024    2.0263 C.3     1  UNL1        0.1217
     18 C          59.5073   92.4100    2.8863 C.ar    1  UNL1        0.0135
     19 C          60.9729   92.3831    2.5683 C.ar    1  UNL1       -0.0012
     20 C          61.9125   91.5907    3.4282 C.ar    1  UNL1       -0.0002
     21 C          61.3863   90.8254    4.6061 C.ar    1  UNL1        0.0015
     22 C          59.9207   90.8524    4.9240 C.ar    1  UNL1        0.0170
     23 C          59.1173   90.2021    6.0111 C.ar    1  UNL1        0.0186
     24 C          57.6813   90.5925    5.8230 C.ar    1  UNL1        0.0759
     25 N          57.5971   91.4841    4.6197 N.ar    1  UNL1       -0.3242
     26 C          56.3483   92.1059    4.0688 C.3     1  UNL1        0.1305
     27 C          58.9811   91.6447    4.0641 C.ar    1  UNL1        0.0575
     28 C          59.6555   89.3168    7.0959 C.ar    1  UNL1        0.0016
     29 C          60.4456   89.9095    8.2248 C.ar    1  UNL1        0.0013
     30 C          60.9838   89.0242    9.3094 C.ar    1  UNL1        0.0147
     31 C          60.7319   87.5462    9.2652 C.ar    1  UNL1        0.0503
     32 C          59.9418   86.9534    8.1363 C.ar    1  UNL1        0.0147
     33 C          59.4037   87.8387    7.0517 C.ar    1  UNL1        0.0013
     34 N          61.2701   86.6609   10.3499 N.am    1  UNL1       -0.2839
     35 C          62.3711   85.6882   10.0471 C.2     1  UNL1        0.2261
     36 O          62.9339   85.6008    8.6594 O.2     1  UNL1       -0.2748
     37 H          60.9007   86.7183   11.2607 H       1  UNL1        0.1549
     38 C          62.9093   84.8030   11.1318 C.3     1  UNL1        0.0854
     39 C          62.4709   85.0060   12.5519 C.3     1  UNL1        0.0096
     40 C          63.0956   84.2002   13.6521 C.3     1  UNL1        0.0005
     41 C          64.2189   84.7787   14.4606 C.3     1  UNL1        0.0000
     42 C          63.9937   86.0138   15.2814 C.3     1  UNL1        0.0000
     43 C          63.6397   85.8946   16.7342 C.3     1  UNL1        0.0000
     44 C          62.6871   86.8718   17.3567 C.3     1  UNL1        0.0000
     45 C          56.9722   93.7649   -2.8867 C.3     1  UNL1        0.0556
     46 C          56.3245   92.5015   -3.3709 C.ar    1  UNL1       -0.0198
     47 C          55.9738   92.3466   -4.8210 C.ar    1  UNL1       -0.0011
     48 C          55.3261   91.0832   -5.3052 C.ar    1  UNL1        0.0363
     49 C          55.0291   89.9748   -4.3392 C.ar    1  UNL1        0.1337
     50 O          54.3814   88.7114   -4.8234 O.3     1  UNL1       -0.5055
     51 C          55.3799   90.1297   -2.8890 C.ar    1  UNL1        0.0363
     52 C          56.0275   91.3930   -2.4048 C.ar    1  UNL1       -0.0011
     53 H          54.1624   88.6147   -5.7293 H       1  UNL1        0.2922
     54 C          65.6893   93.9634   -0.1994 C.3     1  UNL1        0.1177
     55 C          65.5623   94.6906    1.1063 C.ar    1  UNL1       -0.0025
     56 C          65.9918   96.1239    1.2114 C.ar    1  UNL1       -0.0026
     57 C          65.8648   96.8512    2.5171 C.ar    1  UNL1       -0.0003
     58 C          65.3081   96.1452    3.7178 C.ar    1  UNL1       -0.0000
     59 C          64.8785   94.7118    3.6127 C.ar    1  UNL1       -0.0003
     60 C          65.0056   93.9845    2.3070 C.ar    1  UNL1       -0.0026
     61 C          63.7805   94.3091   -3.6616 C.3     1  UNL1        0.1188
     62 C          65.2404   96.4538   -3.5236 C.2     1  UNL1       -0.0034
     63 C          64.2456   95.6045   -4.2579 C.2     1  UNL1       -0.0071
@<TRIPOS>BOND
     1    62    63    2
     2    63    61    1
     3    61     1    1
     4     1     2    1
     5     2     3    1
     6     3     4    2
     7     3     5   am
     8     5     6    1
     9     6    45    1
    10    45    46    1
    11    46    47   ar
    12    47    48   ar
    13    48    49   ar
    14    49    50    1
    15    49    51   ar
    16    51    52   ar
    17     6     7    1
    18     7     8    2
    19     7     9   am
    20     9    17    1
    21    17    18    1
    22    18    19   ar
    23    19    20   ar
    24    20    21   ar
    25    21    22   ar
    26    22    23   ar
    27    23    28    1
    28    28    29   ar
    29    29    30   ar
    30    30    31   ar
    31    31    34    1
    32    34    35   am
    33    35    36    2
    34    35    38    1
    35    38    39    1
    36    39    40    1
    37    40    41    1
    38    41    42    1
    39    42    43    1
    40    43    44    1
    41    31    32   ar
    42    32    33   ar
    43    23    24   ar
    44    24    25   ar
    45    25    26    1
    46    25    27   ar
    47     9    10    1
    48    11    10    1
    49    11    12    1
    50    12    13   am
    51    13    14    2
    52    13    15   am
    53    15    54    1
    54    54    55    1
    55    55    56   ar
    56    56    57   ar
    57    57    58   ar
    58    58    59   ar
    59    59    60   ar
    60    12     1    1
    61    60    55   ar
    62    11     5    1
    63    52    46   ar
    64    27    18   ar
    65    27    22   ar
    66    33    28   ar
    67    50    53    1
    68    34    37    1
    69    15    16    1
