@<TRIPOS>MOLECULE
*****
 32 33 0 0 0
SMALL
GASTEIGER

@<TRIPOS>ATOM
      1 C          63.8742   90.3421   13.6428 C.ar    1  UNL1        0.1025
      2 C          65.0944   91.2130   13.6941 C.ar    1  UNL1        0.1423
      3 O          65.9714   91.2044   14.9110 O.3     1  UNL1       -0.5052
      4 C          65.4377   92.0924   12.5284 C.ar    1  UNL1        0.0735
      5 C          64.5608   92.1010   11.3115 C.ar    1  UNL1        0.1397
      6 O          64.9041   92.9804   10.1458 O.3     1  UNL1       -0.5053
      7 C          63.3406   91.2301   11.2602 C.ar    1  UNL1        0.0739
      8 C          62.9973   90.3507   12.4259 C.ar    1  UNL1        0.1500
      9 H          65.7570   90.6551   15.6392 H       1  UNL1        0.2922
     10 H          65.6663   93.5244   10.1779 H       1  UNL1        0.2922
     11 C          63.5309   89.4627   14.8085 C.2     1  UNL1        0.1789
     12 O          62.3845   89.8216   15.7067 O.2     1  UNL1       -0.2911
     13 C          64.3340   88.2244   15.0759 C.3     1  UNL1        0.0694
     14 C          63.0015   87.4642   17.1727 C.3     1  UNL1        0.0005
     15 C          63.7614   87.1276   15.9239 C.3     1  UNL1        0.0077
     16 C          63.9486   85.6943   15.5233 C.3     1  UNL1        0.0005
     17 O          61.7770   89.4798   12.3746 O.3     1  UNL1       -0.4503
     18 C          61.5521   88.5723   11.2017 C.3     1  UNL1        0.3180
     19 O          60.6619   89.0085   10.0758 O.3     1  UNL1       -0.3160
     20 C          60.4370   88.1010    8.9028 C.3     1  UNL1        0.1772
     21 C          61.1021   86.7573    8.8557 C.3     1  UNL1        0.1695
     22 O          60.8771   85.8498    7.6828 O.3     1  UNL1       -0.3794
     23 C          61.9921   86.3211    9.9815 C.3     1  UNL1        0.1728
     24 O          62.6572   84.9775    9.9344 O.3     1  UNL1       -0.3793
     25 C          62.2172   87.2286   11.1545 C.3     1  UNL1        0.2105
     26 O          63.1072   86.7925   12.2803 O.3     1  UNL1       -0.3766
     27 H          61.3760   85.0277    7.8096 H       1  UNL1        0.2105
     28 H          63.1931   84.8538   10.7334 H       1  UNL1        0.2105
     29 H          63.4540   85.9060   12.0935 H       1  UNL1        0.2107
     30 C          59.5469   88.5372    7.7771 C.3     1  UNL1        0.1693
     31 O          58.4006   87.6700    7.3481 O.3     1  UNL1       -0.3794
     32 H          58.7430   86.8434    6.9734 H       1  UNL1        0.2105
@<TRIPOS>BOND
     1    14    15    1
     2    15    16    1
     3    15    13    1
     4    13    11    1
     5    11    12    2
     6    11     1    1
     7     1     2   ar
     8     2     3    1
     9     2     4   ar
    10     4     5   ar
    11     5     6    1
    12     5     7   ar
    13     7     8   ar
    14     8    17    1
    15    18    17    1
    16    18    19    1
    17    19    20    1
    18    20    30    1
    19    30    31    1
    20    20    21    1
    21    21    22    1
    22    21    23    1
    23    23    24    1
    24    23    25    1
    25    25    26    1
    26     8     1   ar
    27    25    18    1
    28     3     9    1
    29     6    10    1
    30    31    32    1
    31    22    27    1
    32    24    28    1
    33    26    29    1
@<TRIPOS>MOLECULE
*****
 32 33 0 0 0
SMALL
GASTEIGER

@<TRIPOS>ATOM
      1 C          63.3562   84.6367   13.8315 C.ar    1  UNL1        0.1025
      2 C          63.6542   83.1716   13.9532 C.ar    1  UNL1        0.1423
      3 O          63.8837   82.5627   15.3047 O.3     1  UNL1       -0.5052
      4 C          63.7227   82.3155   12.7234 C.ar    1  UNL1        0.0735
      5 C          63.4932   82.9243   11.3720 C.ar    1  UNL1        0.1397
      6 O          63.5616   82.0682   10.1422 O.3     1  UNL1       -0.5053
      7 C          63.1952   84.3894   11.2502 C.ar    1  UNL1        0.0739
      8 C          63.1267   85.2455   12.4800 C.ar    1  UNL1        0.1500
      9 H          63.8410   83.0975   16.0729 H       1  UNL1        0.2922
     10 H          63.7478   81.1530   10.2182 H       1  UNL1        0.2922
     11 C          63.2877   85.4928   15.0612 C.2     1  UNL1        0.1789
     12 O          62.1637   85.3137   16.0381 O.2     1  UNL1       -0.2911
     13 C          64.3433   86.5281   15.3141 C.3     1  UNL1        0.0694
     14 C          63.1803   88.3951   16.6968 C.3     1  UNL1        0.0005
     15 C          63.9565   87.9670   15.4866 C.3     1  UNL1        0.0077
     16 C          64.3457   88.9779   14.4491 C.3     1  UNL1        0.0005
     17 O          62.8286   86.7106   12.3582 O.3     1  UNL1       -0.4503
     18 C          61.9934   87.2139   11.2185 C.3     1  UNL1        0.3180
     19 O          61.6734   86.3085   10.0661 O.3     1  UNL1       -0.3160
     20 C          60.8381   86.8117    8.9264 C.3     1  UNL1        0.1772
     21 C          60.3227   88.2203    8.9390 C.3     1  UNL1        0.1695
     22 O          59.4875   88.7236    7.7993 O.3     1  UNL1       -0.3794
     23 C          60.6427   89.1257   10.0913 C.3     1  UNL1        0.1728
     24 O          60.1273   90.5343   10.1039 O.3     1  UNL1       -0.3793
     25 C          61.4780   88.6225   11.2311 C.3     1  UNL1        0.2105
     26 O          61.7979   89.5279   12.3834 O.3     1  UNL1       -0.3766
     27 H          59.2386   89.6466    7.9637 H       1  UNL1        0.2105
     28 H          60.4229   90.9795   10.9134 H       1  UNL1        0.2105
     29 H          61.3915   90.3960   12.2350 H       1  UNL1        0.2107
     30 C          60.5182   85.9063    7.7741 C.3     1  UNL1        0.1693
     31 O          59.1236   85.8567    7.2240 O.3     1  UNL1       -0.3794
     32 H          58.5255   85.4867    7.8920 H       1  UNL1        0.2105
@<TRIPOS>BOND
     1    14    15    1
     2    15    16    1
     3    15    13    1
     4    13    11    1
     5    11    12    2
     6    11     1    1
     7     1     2   ar
     8     2     3    1
     9     2     4   ar
    10     4     5   ar
    11     5     6    1
    12     5     7   ar
    13     7     8   ar
    14     8    17    1
    15    18    17    1
    16    18    19    1
    17    19    20    1
    18    20    30    1
    19    30    31    1
    20    20    21    1
    21    21    22    1
    22    21    23    1
    23    23    24    1
    24    23    25    1
    25    25    26    1
    26     8     1   ar
    27    25    18    1
    28     3     9    1
    29     6    10    1
    30    31    32    1
    31    22    27    1
    32    24    28    1
    33    26    29    1
@<TRIPOS>MOLECULE
*****
 32 33 0 0 0
SMALL
GASTEIGER

@<TRIPOS>ATOM
      1 C          61.5572   88.2912   10.9902 C.ar    1  UNL1        0.1025
      2 C          60.7453   88.8488    9.8590 C.ar    1  UNL1        0.1423
      3 O          60.3617   90.2990    9.8545 O.3     1  UNL1       -0.5052
      4 C          60.3168   87.9562    8.7321 C.ar    1  UNL1        0.0735
      5 C          60.7003   86.5061    8.7366 C.ar    1  UNL1        0.1397
      6 O          60.2719   85.6136    7.6097 O.3     1  UNL1       -0.5053
      7 C          61.5123   85.9486    9.8678 C.ar    1  UNL1        0.0739
      8 C          61.9407   86.8411   10.9947 C.ar    1  UNL1        0.1500
      9 H          60.6293   90.8565   10.5584 H       1  UNL1        0.2922
     10 H          59.7647   85.9619    6.9030 H       1  UNL1        0.2922
     11 C          61.9857   89.1838   12.1171 C.2     1  UNL1        0.1789
     12 O          60.9569   89.8040   13.0153 O.2     1  UNL1       -0.2911
     13 C          63.4429   89.4562   12.3457 C.3     1  UNL1        0.0694
     14 C          64.2028   90.8330   14.4138 C.3     1  UNL1        0.0005
     15 C          63.9858   89.5090   13.7430 C.3     1  UNL1        0.0077
     16 C          64.3118   88.2378   14.4695 C.3     1  UNL1        0.0005
     17 O          62.7527   86.2835   12.1260 O.3     1  UNL1       -0.4503
     18 C          62.8379   84.7997   12.3279 C.3     1  UNL1        0.3180
     19 O          63.1848   83.9045   11.1753 O.3     1  UNL1       -0.3160
     20 C          63.2699   82.4207   11.3772 C.3     1  UNL1        0.1772
     21 C          63.0083   81.8318   12.7317 C.3     1  UNL1        0.1695
     22 O          63.0934   80.3479   12.9337 O.3     1  UNL1       -0.3794
     23 C          62.6614   82.7268   13.8844 C.3     1  UNL1        0.1728
     24 O          62.3997   82.1380   15.2389 O.3     1  UNL1       -0.3793
     25 C          62.5762   84.2108   13.6825 C.3     1  UNL1        0.2105
     26 O          62.2294   85.1058   14.8351 O.3     1  UNL1       -0.3766
     27 H          62.8976   80.1359   13.8597 H       1  UNL1        0.2105
     28 H          62.1912   82.8485   15.8655 H       1  UNL1        0.2105
     29 H          62.0925   84.5691   15.6314 H       1  UNL1        0.2107
     30 C          63.6168   81.5256   10.2246 C.3     1  UNL1        0.1693
     31 O          62.9027   80.2183   10.0488 O.3     1  UNL1       -0.3794
     32 H          63.1241   79.6274   10.7855 H       1  UNL1        0.2105
@<TRIPOS>BOND
     1    14    15    1
     2    15    16    1
     3    15    13    1
     4    13    11    1
     5    11    12    2
     6    11     1    1
     7     1     2   ar
     8     2     3    1
     9     2     4   ar
    10     4     5   ar
    11     5     6    1
    12     5     7   ar
    13     7     8   ar
    14     8    17    1
    15    18    17    1
    16    18    19    1
    17    19    20    1
    18    20    30    1
    19    30    31    1
    20    20    21    1
    21    21    22    1
    22    21    23    1
    23    23    24    1
    24    23    25    1
    25    25    26    1
    26     8     1   ar
    27    25    18    1
    28     3     9    1
    29     6    10    1
    30    31    32    1
    31    22    27    1
    32    24    28    1
    33    26    29    1
@<TRIPOS>MOLECULE
*****
 32 33 0 0 0
SMALL
GASTEIGER

@<TRIPOS>ATOM
      1 C          64.0644   90.3412   13.5335 C.ar    1  UNL1        0.1025
      2 C          65.3025   91.1872   13.5653 C.ar    1  UNL1        0.1423
      3 O          66.2439   91.0956   14.7296 O.3     1  UNL1       -0.5052
      4 C          65.5995   92.1249   12.4328 C.ar    1  UNL1        0.0735
      5 C          64.6582   92.2166   11.2685 C.ar    1  UNL1        0.1397
      6 O          64.9552   93.1543   10.1360 O.3     1  UNL1       -0.5053
      7 C          63.4201   91.3705   11.2367 C.ar    1  UNL1        0.0739
      8 C          63.1231   90.4328   12.3692 C.ar    1  UNL1        0.1500
      9 H          66.0584   90.5099   15.4371 H       1  UNL1        0.2922
     10 H          65.7286   93.6828   10.1559 H       1  UNL1        0.2922
     11 C          63.7674   89.4035   14.6660 C.2     1  UNL1        0.1789
     12 O          62.6048   89.6702   15.5754 O.2     1  UNL1       -0.2911
     13 C          64.6332   88.1990   14.8891 C.3     1  UNL1        0.0694
     14 C          63.4813   86.4293   16.4029 C.3     1  UNL1        0.0005
     15 C          64.0071   86.8469   15.0615 C.3     1  UNL1        0.0077
     16 C          63.9068   85.9123   13.8926 C.3     1  UNL1        0.0005
     17 O          61.8849   89.5867   12.3374 O.3     1  UNL1       -0.4503
     18 C          61.6111   88.7021   11.1574 C.3     1  UNL1        0.3180
     19 O          62.2641   87.3550   11.0624 O.3     1  UNL1       -0.3160
     20 C          61.9904   86.4703    9.8824 C.3     1  UNL1        0.1772
     21 C          61.0636   86.9327    8.7974 C.3     1  UNL1        0.1695
     22 O          60.7899   86.0481    7.6174 O.3     1  UNL1       -0.3794
     23 C          60.4106   88.2797    8.8923 C.3     1  UNL1        0.1728
     24 O          59.4838   88.7421    7.8073 O.3     1  UNL1       -0.3793
     25 C          60.6843   89.1645   10.0724 C.3     1  UNL1        0.2105
     26 O          60.0313   90.5115   10.1673 O.3     1  UNL1       -0.3766
     27 H          60.1748   86.4943    7.0145 H       1  UNL1        0.2105
     28 H          59.1506   89.6274    8.0222 H       1  UNL1        0.2105
     29 H          59.4680   90.6532    9.3905 H       1  UNL1        0.2107
     30 C          62.6434   85.1233    9.7874 C.3     1  UNL1        0.1693
     31 O          63.2574   84.6770    8.4937 O.3     1  UNL1       -0.3794
     32 H          62.5619   84.5676    7.8265 H       1  UNL1        0.2105
@<TRIPOS>BOND
     1    14    15    1
     2    15    16    1
     3    15    13    1
     4    13    11    1
     5    11    12    2
     6    11     1    1
     7     1     2   ar
     8     2     3    1
     9     2     4   ar
    10     4     5   ar
    11     5     6    1
    12     5     7   ar
    13     7     8   ar
    14     8    17    1
    15    18    17    1
    16    18    19    1
    17    19    20    1
    18    20    30    1
    19    30    31    1
    20    20    21    1
    21    21    22    1
    22    21    23    1
    23    23    24    1
    24    23    25    1
    25    25    26    1
    26     8     1   ar
    27    25    18    1
    28     3     9    1
    29     6    10    1
    30    31    32    1
    31    22    27    1
    32    24    28    1
    33    26    29    1
@<TRIPOS>MOLECULE
*****
 32 33 0 0 0
SMALL
GASTEIGER

@<TRIPOS>ATOM
      1 C          60.8628   87.6524    9.8529 C.ar    1  UNL1        0.1025
      2 C          60.1524   87.4671    8.5449 C.ar    1  UNL1        0.1423
      3 O          58.9640   88.3188    8.2096 O.3     1  UNL1       -0.5052
      4 C          60.6304   86.4301    7.5722 C.ar    1  UNL1        0.0735
      5 C          61.8187   85.5784    7.9075 C.ar    1  UNL1        0.1397
      6 O          62.2966   84.5414    6.9347 O.3     1  UNL1       -0.5053
      7 C          62.5291   85.7638    9.2155 C.ar    1  UNL1        0.0739
      8 C          62.0511   86.8008   10.1882 C.ar    1  UNL1        0.1500
      9 H          58.6655   88.9666    8.8172 H       1  UNL1        0.2922
     10 H          61.8528   84.4257    6.1176 H       1  UNL1        0.2922
     11 C          60.3849   88.6894   10.8257 C.2     1  UNL1        0.1789
     12 O          59.4644   88.3007   11.9444 O.2     1  UNL1       -0.2911
     13 C          60.8274   90.1152   10.6797 C.3     1  UNL1        0.0694
     14 C          63.1023   91.2073   10.0611 C.3     1  UNL1        0.0005
     15 C          62.2246   90.5092   11.0574 C.3     1  UNL1        0.0077
     16 C          62.7442   90.2052   12.4313 C.3     1  UNL1        0.0005
     17 O          62.7616   86.9860   11.4963 O.3     1  UNL1       -0.4503
     18 C          63.0104   85.8061   12.3883 C.3     1  UNL1        0.3180
     19 O          62.5860   84.4346   11.9538 O.3     1  UNL1       -0.3160
     20 C          62.8348   83.2546   12.8458 C.3     1  UNL1        0.1772
     21 C          63.5081   83.4461   14.1724 C.3     1  UNL1        0.1695
     22 O          63.7570   82.2662   15.0645 O.3     1  UNL1       -0.3794
     23 C          63.9326   84.8176   14.6070 C.3     1  UNL1        0.1728
     24 O          64.6059   85.0091   15.9337 O.3     1  UNL1       -0.3793
     25 C          63.6838   85.9976   13.7150 C.3     1  UNL1        0.2105
     26 O          64.1083   87.3690   14.1496 O.3     1  UNL1       -0.3766
     27 H          64.1970   82.5620   15.8767 H       1  UNL1        0.2105
     28 H          64.8129   85.9485   16.0586 H       1  UNL1        0.2105
     29 H          64.5244   87.3167   15.0242 H       1  UNL1        0.2107
     30 C          62.4103   81.8832   12.4112 C.3     1  UNL1        0.1693
     31 O          61.6631   80.9935   13.3600 O.3     1  UNL1       -0.3794
     32 H          62.2395   80.7570   14.1034 H       1  UNL1        0.2105
@<TRIPOS>BOND
     1    14    15    1
     2    15    16    1
     3    15    13    1
     4    13    11    1
     5    11    12    2
     6    11     1    1
     7     1     2   ar
     8     2     3    1
     9     2     4   ar
    10     4     5   ar
    11     5     6    1
    12     5     7   ar
    13     7     8   ar
    14     8    17    1
    15    18    17    1
    16    18    19    1
    17    19    20    1
    18    20    30    1
    19    30    31    1
    20    20    21    1
    21    21    22    1
    22    21    23    1
    23    23    24    1
    24    23    25    1
    25    25    26    1
    26     8     1   ar
    27    25    18    1
    28     3     9    1
    29     6    10    1
    30    31    32    1
    31    22    27    1
    32    24    28    1
    33    26    29    1
@<TRIPOS>MOLECULE
*****
 32 33 0 0 0
SMALL
GASTEIGER

@<TRIPOS>ATOM
      1 C          64.7681   91.7527   12.4065 C.ar    1  UNL1        0.1025
      2 C          64.4094   92.0847   10.9884 C.ar    1  UNL1        0.1423
      3 O          65.1303   93.1872   10.2708 O.3     1  UNL1       -0.5052
      4 C          63.3298   91.3143   10.2878 C.ar    1  UNL1        0.0735
      5 C          62.6088   90.2119   11.0053 C.ar    1  UNL1        0.1397
      6 O          61.5292   89.4415   10.3047 O.3     1  UNL1       -0.5053
      7 C          62.9676   89.8798   12.4233 C.ar    1  UNL1        0.0739
      8 C          64.0472   90.6502   13.1239 C.ar    1  UNL1        0.1500
      9 H          65.8048   93.6685   10.7084 H       1  UNL1        0.2922
     10 H          61.3051   89.6489    9.4188 H       1  UNL1        0.2922
     11 C          65.8478   92.5231   13.1071 C.2     1  UNL1        0.1789
     12 O          65.8529   94.0222   13.0565 O.2     1  UNL1       -0.2911
     13 C          66.9223   91.7944   13.8583 C.3     1  UNL1        0.0694
     14 C          68.8352   92.4805   15.4770 C.3     1  UNL1        0.0005
     15 C          67.3729   92.2961   15.1981 C.3     1  UNL1        0.0077
     16 C          66.3612   92.6135   16.2591 C.3     1  UNL1        0.0005
     17 O          64.4059   90.3181   14.5421 O.3     1  UNL1       -0.4503
     18 C          64.1019   88.9567   15.0935 C.3     1  UNL1        0.3180
     19 O          64.5494   87.7308   14.3539 O.3     1  UNL1       -0.3160
     20 C          64.2453   86.3694   14.9053 C.3     1  UNL1        0.1772
     21 C          63.4937   86.2339   16.1963 C.3     1  UNL1        0.1695
     22 O          63.1897   84.8725   16.7477 O.3     1  UNL1       -0.3794
     23 C          63.0462   87.4597   16.9359 C.3     1  UNL1        0.1728
     24 O          62.2946   87.3241   18.2269 O.3     1  UNL1       -0.3793
     25 C          63.3502   88.8212   16.3845 C.3     1  UNL1        0.2105
     26 O          62.9027   90.0470   17.1241 O.3     1  UNL1       -0.3766
     27 H          62.7020   84.9628   17.5814 H       1  UNL1        0.2105
     28 H          62.0820   88.2056   18.5715 H       1  UNL1        0.2105
     29 H          62.4346   89.7842   17.9321 H       1  UNL1        0.2107
     30 C          64.6929   85.1436   14.1657 C.3     1  UNL1        0.1693
     31 O          66.0472   84.5578   14.4351 O.3     1  UNL1       -0.3794
     32 H          66.7323   85.1808   14.1463 H       1  UNL1        0.2105
@<TRIPOS>BOND
     1    14    15    1
     2    15    16    1
     3    15    13    1
     4    13    11    1
     5    11    12    2
     6    11     1    1
     7     1     2   ar
     8     2     3    1
     9     2     4   ar
    10     4     5   ar
    11     5     6    1
    12     5     7   ar
    13     7     8   ar
    14     8    17    1
    15    18    17    1
    16    18    19    1
    17    19    20    1
    18    20    30    1
    19    30    31    1
    20    20    21    1
    21    21    22    1
    22    21    23    1
    23    23    24    1
    24    23    25    1
    25    25    26    1
    26     8     1   ar
    27    25    18    1
    28     3     9    1
    29     6    10    1
    30    31    32    1
    31    22    27    1
    32    24    28    1
    33    26    29    1
@<TRIPOS>MOLECULE
*****
 32 33 0 0 0
SMALL
GASTEIGER

@<TRIPOS>ATOM
      1 C          62.6799   86.5578   11.9469 C.ar    1  UNL1        0.1025
      2 C          61.9612   86.4985   10.6316 C.ar    1  UNL1        0.1423
      3 O          61.5080   85.1778   10.0835 O.3     1  UNL1       -0.5052
      4 C          61.6957   87.7599    9.8645 C.ar    1  UNL1        0.0735
      5 C          62.1489   89.0805   10.4126 C.ar    1  UNL1        0.1397
      6 O          61.8835   90.3418    9.6455 O.3     1  UNL1       -0.5053
      7 C          62.8676   89.1398   11.7278 C.ar    1  UNL1        0.0739
      8 C          63.1331   87.8784   12.4950 C.ar    1  UNL1        0.1500
      9 H          61.6738   84.3899   10.5627 H       1  UNL1        0.2922
     10 H          61.4345   90.3048    8.8238 H       1  UNL1        0.2922
     11 C          62.9454   85.2964   12.7140 C.2     1  UNL1        0.1789
     12 O          62.1408   84.9808   13.9400 O.2     1  UNL1       -0.2911
     13 C          64.0154   84.3507   12.2552 C.3     1  UNL1        0.0694
     14 C          64.1810   82.8941   10.1102 C.3     1  UNL1        0.0005
     15 C          63.6457   83.1119   11.4945 C.3     1  UNL1        0.0077
     16 C          62.7408   82.0910   12.1179 C.3     1  UNL1        0.0005
     17 O          63.8518   87.9378   13.8103 O.3     1  UNL1       -0.4503
     18 C          64.3359   89.2543   14.3417 C.3     1  UNL1        0.3180
     19 O          65.6286   89.8330   13.8476 O.3     1  UNL1       -0.3160
     20 C          66.1127   91.1495   14.3790 C.3     1  UNL1        0.1772
     21 C          65.3041   91.8873   15.4046 C.3     1  UNL1        0.1695
     22 O          65.7882   93.2038   15.9360 O.3     1  UNL1       -0.3794
     23 C          64.0115   91.3087   15.8987 C.3     1  UNL1        0.1728
     24 O          63.2029   92.0466   16.9243 O.3     1  UNL1       -0.3793
     25 C          63.5274   89.9921   15.3673 C.3     1  UNL1        0.2105
     26 O          62.2347   89.4135   15.8615 O.3     1  UNL1       -0.3766
     27 H          65.1529   93.5436   16.5855 H       1  UNL1        0.2105
     28 H          62.4032   91.5385   17.1322 H       1  UNL1        0.2105
     29 H          61.8419   90.0119   16.5160 H       1  UNL1        0.2107
     30 C          67.4053   91.7281   13.8849 C.3     1  UNL1        0.1693
     31 O          67.4777   93.1734   13.4900 O.3     1  UNL1       -0.3794
     32 H          66.9235   93.3231   12.7082 H       1  UNL1        0.2105
@<TRIPOS>BOND
     1    14    15    1
     2    15    16    1
     3    15    13    1
     4    13    11    1
     5    11    12    2
     6    11     1    1
     7     1     2   ar
     8     2     3    1
     9     2     4   ar
    10     4     5   ar
    11     5     6    1
    12     5     7   ar
    13     7     8   ar
    14     8    17    1
    15    18    17    1
    16    18    19    1
    17    19    20    1
    18    20    30    1
    19    30    31    1
    20    20    21    1
    21    21    22    1
    22    21    23    1
    23    23    24    1
    24    23    25    1
    25    25    26    1
    26     8     1   ar
    27    25    18    1
    28     3     9    1
    29     6    10    1
    30    31    32    1
    31    22    27    1
    32    24    28    1
    33    26    29    1
@<TRIPOS>MOLECULE
*****
 32 33 0 0 0
SMALL
GASTEIGER

@<TRIPOS>ATOM
      1 C          62.6929   86.5333   11.8916 C.ar    1  UNL1        0.1025
      2 C          62.8591   85.0623   12.1336 C.ar    1  UNL1        0.1423
      3 O          62.2443   84.0726   11.1888 O.3     1  UNL1       -0.5052
      4 C          63.6401   84.5810   13.3204 C.ar    1  UNL1        0.0735
      5 C          64.2549   85.5707   14.2651 C.ar    1  UNL1        0.1397
      6 O          65.0359   85.0894   15.4519 O.3     1  UNL1       -0.5053
      7 C          64.0886   87.0416   14.0231 C.ar    1  UNL1        0.0739
      8 C          63.3076   87.5229   12.8364 C.ar    1  UNL1        0.1500
      9 H          61.7564   84.3732   10.4475 H       1  UNL1        0.2922
     10 H          65.1397   84.1705   15.6030 H       1  UNL1        0.2922
     11 C          61.9118   87.0146   10.7049 C.2     1  UNL1        0.1789
     12 O          62.4482   86.8066    9.3196 O.2     1  UNL1       -0.2911
     13 C          60.5945   87.7039   10.9034 C.3     1  UNL1        0.0694
     14 C          60.1060   89.0410    8.7301 C.3     1  UNL1        0.0005
     15 C          60.3188   89.0075   10.2146 C.3     1  UNL1        0.0077
     16 C          60.2559   90.2775   11.0101 C.3     1  UNL1        0.0005
     17 O          63.1414   88.9940   12.5944 O.3     1  UNL1       -0.4503
     18 C          63.9004   89.9819   13.4298 C.3     1  UNL1        0.3180
     19 O          65.1313   90.6398   12.8801 O.3     1  UNL1       -0.3160
     20 C          65.8903   91.6278   13.7154 C.3     1  UNL1        0.1772
     21 C          65.4184   91.9579   15.1005 C.3     1  UNL1        0.1695
     22 O          66.1774   92.9459   15.9358 O.3     1  UNL1       -0.3794
     23 C          64.1875   91.3001   15.6502 C.3     1  UNL1        0.1728
     24 O          63.7157   91.6302   17.0352 O.3     1  UNL1       -0.3793
     25 C          63.4285   90.3121   14.8148 C.3     1  UNL1        0.2105
     26 O          62.1976   89.6542   15.3645 O.3     1  UNL1       -0.3766
     27 H          65.7416   93.0435   16.7969 H       1  UNL1        0.2105
     28 H          62.9135   91.1220   17.2332 H       1  UNL1        0.2105
     29 H          62.0334   89.9764   16.2646 H       1  UNL1        0.2107
     30 C          67.1211   92.2856   13.1657 C.3     1  UNL1        0.1693
     31 O          68.4496   92.0609   13.8249 O.3     1  UNL1       -0.3794
     32 H          68.4400   92.4508   14.7130 H       1  UNL1        0.2105
@<TRIPOS>BOND
     1    14    15    1
     2    15    16    1
     3    15    13    1
     4    13    11    1
     5    11    12    2
     6    11     1    1
     7     1     2   ar
     8     2     3    1
     9     2     4   ar
    10     4     5   ar
    11     5     6    1
    12     5     7   ar
    13     7     8   ar
    14     8    17    1
    15    18    17    1
    16    18    19    1
    17    19    20    1
    18    20    30    1
    19    30    31    1
    20    20    21    1
    21    21    22    1
    22    21    23    1
    23    23    24    1
    24    23    25    1
    25    25    26    1
    26     8     1   ar
    27    25    18    1
    28     3     9    1
    29     6    10    1
    30    31    32    1
    31    22    27    1
    32    24    28    1
    33    26    29    1
@<TRIPOS>MOLECULE
*****
 32 33 0 0 0
SMALL
GASTEIGER

@<TRIPOS>ATOM
      1 C          61.7859   88.6479   10.5930 C.ar    1  UNL1        0.1025
      2 C          60.6589   89.2053    9.7750 C.ar    1  UNL1        0.1423
      3 O          60.3611   90.6751    9.8115 O.3     1  UNL1       -0.5052
      4 C          59.8297   88.2931    8.9204 C.ar    1  UNL1        0.0735
      5 C          60.1275   86.8234    8.8839 C.ar    1  UNL1        0.1397
      6 O          59.2983   85.9112    8.0293 O.3     1  UNL1       -0.5053
      7 C          61.2544   86.2660    9.7019 C.ar    1  UNL1        0.0739
      8 C          62.0836   87.1782   10.5565 C.ar    1  UNL1        0.1500
      9 H          60.8791   91.2449   10.3453 H       1  UNL1        0.2922
     10 H          58.5943   86.2595    7.5183 H       1  UNL1        0.2922
     11 C          62.6151   89.5601   11.4476 C.2     1  UNL1        0.1789
     12 O          63.4685   90.6156   10.8093 O.2     1  UNL1       -0.2911
     13 C          62.5908   89.4168   12.9405 C.3     1  UNL1        0.0694
     14 C          64.3746   88.2874   14.4546 C.3     1  UNL1        0.0005
     15 C          63.8685   89.4948   13.7223 C.3     1  UNL1        0.0077
     16 C          64.6402   90.7801   13.7720 C.3     1  UNL1        0.0005
     17 O          63.2106   86.6207   11.3746 O.3     1  UNL1       -0.4503
     18 C          63.0042   85.3760   12.1858 C.3     1  UNL1        0.3180
     19 O          62.7243   85.4767   13.6560 O.3     1  UNL1       -0.3160
     20 C          62.5179   84.2320   14.4672 C.3     1  UNL1        0.1772
     21 C          62.5915   82.8865   13.8082 C.3     1  UNL1        0.1695
     22 O          62.3852   81.6418   14.6194 O.3     1  UNL1       -0.3794
     23 C          62.8715   82.7857   12.3381 C.3     1  UNL1        0.1728
     24 O          62.9451   81.4402   11.6791 O.3     1  UNL1       -0.3793
     25 C          63.0778   84.0305   11.5268 C.3     1  UNL1        0.2105
     26 O          63.3578   83.9297   10.0566 O.3     1  UNL1       -0.3766
     27 H          62.4652   80.8644   14.0448 H       1  UNL1        0.2105
     28 H          63.1321   81.5529   10.7340 H       1  UNL1        0.2105
     29 H          63.3714   82.9962    9.7933 H       1  UNL1        0.2107
     30 C          62.2380   84.3328   15.9374 C.3     1  UNL1        0.1693
     31 O          61.6277   85.5819   16.5008 O.3     1  UNL1       -0.3794
     32 H          62.2511   86.3186   16.4034 H       1  UNL1        0.2105
@<TRIPOS>BOND
     1    14    15    1
     2    15    16    1
     3    15    13    1
     4    13    11    1
     5    11    12    2
     6    11     1    1
     7     1     2   ar
     8     2     3    1
     9     2     4   ar
    10     4     5   ar
    11     5     6    1
    12     5     7   ar
    13     7     8   ar
    14     8    17    1
    15    18    17    1
    16    18    19    1
    17    19    20    1
    18    20    30    1
    19    30    31    1
    20    20    21    1
    21    21    22    1
    22    21    23    1
    23    23    24    1
    24    23    25    1
    25    25    26    1
    26     8     1   ar
    27    25    18    1
    28     3     9    1
    29     6    10    1
    30    31    32    1
    31    22    27    1
    32    24    28    1
    33    26    29    1
