@<TRIPOS>MOLECULE
*****
 30 33 0 0 0
SMALL
GASTEIGER

@<TRIPOS>ATOM
      1 N          65.6316   92.9120   12.5499 N.pl3   1  UNL1       -0.2834
      2 C          64.4030   92.1155   12.2239 C.3     1  UNL1        0.1221
      3 C          64.3473   90.9452   13.1606 C.ar    1  UNL1        0.0337
      4 C          63.5535   89.7296   13.5379 C.ar    1  UNL1        0.0990
      5 N          64.2571   89.0516   14.6760 N.ar    1  UNL1       -0.2287
      6 N          65.4857   89.8481   15.0020 N.ar    1  UNL1       -0.1681
      7 C          65.5414   91.0184   14.0654 C.ar    1  UNL1        0.0960
      8 C          66.3352   92.2339   13.6880 C.3     1  UNL1        0.1161
      9 C          67.0551   95.3566    9.7666 C.ar    1  UNL1        0.2576
     10 N          66.9714   96.6749   10.4775 N.ar    1  UNL1       -0.1873
     11 C          66.4411   96.7389   11.8791 C.ar    1  UNL1        0.2028
     12 N          65.9945   95.4845   12.5699 N.ar    1  UNL1       -0.2065
     13 C          66.0782   94.1663   11.8591 C.ar    1  UNL1        0.1663
     14 C          66.6086   94.1024   10.4574 C.ar    1  UNL1        0.2243
     15 F          66.6923   92.7842    9.7466 F       1  UNL1       -0.1963
     16 C          67.5402   96.5101    7.4897 C.3     1  UNL1        0.2543
     17 O          67.5855   95.2928    8.3649 O.3     1  UNL1       -0.4545
     18 C          63.8105   87.7973   15.3669 C.ar    1  UNL1        0.0841
     19 C          63.1768   87.8736   16.7243 C.ar    1  UNL1        0.0192
     20 C          62.7302   86.6192   17.4150 C.ar    1  UNL1        0.0029
     21 C          62.9174   85.2885   16.7485 C.ar    1  UNL1        0.0184
     22 C          63.5511   85.2122   15.3911 C.ar    1  UNL1        0.1072
     23 C          63.9977   86.4666   14.7003 C.ar    1  UNL1        0.0375
     24 S          63.7383   83.8816   14.7245 S.O2    1  UNL1        0.0105
     25 C          63.9255   82.5511   14.0578 C.3     1  UNL1        0.1816
     26 O          62.4355   83.4102   15.2994 O.2     1  UNL1       -0.1686
     27 O          65.0411   84.3531   14.1495 O.2     1  UNL1       -0.1686
     28 C          67.6088   92.6911   14.3351 C.3     1  UNL1        0.0240
     29 C          68.9305   92.2181   13.8064 C.3     1  UNL1        0.0021
     30 C          67.5609   93.6213   15.5109 C.3     1  UNL1        0.0021
@<TRIPOS>BOND
     1    16    17    1
     2    17     9    1
     3     9    10   ar
     4    10    11   ar
     5    11    12   ar
     6    12    13   ar
     7    13     1    1
     8     1     2    1
     9     2     3    1
    10     3     4   ar
    11     4     5   ar
    12     5    18    1
    13    18    19   ar
    14    19    20   ar
    15    20    21   ar
    16    21    22   ar
    17    22    24    1
    18    24    25    1
    19    24    26    2
    20    24    27    2
    21    22    23   ar
    22     5     6   ar
    23     6     7   ar
    24     7     8    1
    25     8    28    1
    26    28    29    1
    27    28    30    1
    28    13    14   ar
    29    14    15    1
    30    14     9   ar
    31     8     1    1
    32     7     3   ar
    33    23    18   ar
@<TRIPOS>MOLECULE
*****
 30 33 0 0 0
SMALL
GASTEIGER

@<TRIPOS>ATOM
      1 N          64.3818   90.7417   13.5576 N.pl3   1  UNL1       -0.2834
      2 C          64.0077   91.2121   12.1833 C.3     1  UNL1        0.1221
      3 C          63.2256   90.1196   11.5163 C.ar    1  UNL1        0.0337
      4 C          62.5111   89.7352   10.2547 C.ar    1  UNL1        0.0990
      5 N          61.9603   88.3520   10.4371 N.ar    1  UNL1       -0.2287
      6 N          62.3343   87.8816   11.8114 N.ar    1  UNL1       -0.1681
      7 C          63.1164   88.9740   12.4784 C.ar    1  UNL1        0.0960
      8 C          63.8309   89.3585   13.7400 C.3     1  UNL1        0.1161
      9 C          67.3606   92.7203   15.2785 C.ar    1  UNL1        0.2576
     10 N          66.7422   93.0711   16.5994 N.ar    1  UNL1       -0.1873
     11 C          65.3370   92.6455   16.9063 C.ar    1  UNL1        0.2028
     12 N          64.5502   91.8690   15.8923 N.ar    1  UNL1       -0.2065
     13 C          65.1686   91.5182   14.5715 C.ar    1  UNL1        0.1663
     14 C          66.5739   91.9438   14.2647 C.ar    1  UNL1        0.2243
     15 F          67.1923   91.5930   12.9439 F       1  UNL1       -0.1963
     16 C          69.5258   93.9878   15.9534 C.3     1  UNL1        0.2543
     17 O          68.7659   93.1459   14.9717 O.3     1  UNL1       -0.4545
     18 C          61.1734   87.5755    9.4232 C.ar    1  UNL1        0.0841
     19 C          59.6971   87.8025    9.2854 C.ar    1  UNL1        0.0192
     20 C          58.9104   87.0259    8.2715 C.ar    1  UNL1        0.0029
     21 C          59.5999   86.0224    7.3954 C.ar    1  UNL1        0.0184
     22 C          61.0762   85.7955    7.5331 C.ar    1  UNL1        0.1072
     23 C          61.8629   86.5720    8.5471 C.ar    1  UNL1        0.0375
     24 S          61.7658   84.7921    6.6570 S.O2    1  UNL1        0.0105
     25 C          62.4552   83.7886    5.7809 C.3     1  UNL1        0.1816
     26 O          63.0669   85.0877    7.3423 O.2     1  UNL1       -0.1686
     27 O          60.4646   84.4963    5.9717 O.2     1  UNL1       -0.1686
     28 C          63.9702   88.5089   14.9683 C.3     1  UNL1        0.0240
     29 C          64.6913   87.1956   14.8941 C.3     1  UNL1        0.0021
     30 C          63.3883   88.9725   16.2708 C.3     1  UNL1        0.0021
@<TRIPOS>BOND
     1    16    17    1
     2    17     9    1
     3     9    10   ar
     4    10    11   ar
     5    11    12   ar
     6    12    13   ar
     7    13     1    1
     8     1     2    1
     9     2     3    1
    10     3     4   ar
    11     4     5   ar
    12     5    18    1
    13    18    19   ar
    14    19    20   ar
    15    20    21   ar
    16    21    22   ar
    17    22    24    1
    18    24    25    1
    19    24    26    2
    20    24    27    2
    21    22    23   ar
    22     5     6   ar
    23     6     7   ar
    24     7     8    1
    25     8    28    1
    26    28    29    1
    27    28    30    1
    28    13    14   ar
    29    14    15    1
    30    14     9   ar
    31     8     1    1
    32     7     3   ar
    33    23    18   ar
@<TRIPOS>MOLECULE
*****
 30 33 0 0 0
SMALL
GASTEIGER

@<TRIPOS>ATOM
      1 N          61.9443   87.8903   10.1812 N.pl3   1  UNL1       -0.2834
      2 C          62.1655   89.3740   10.1811 C.3     1  UNL1        0.1221
      3 C          62.9170   89.7307   11.4294 C.ar    1  UNL1        0.0337
      4 C          63.5181   90.8681   12.2007 C.ar    1  UNL1        0.0990
      5 N          64.1328   90.3079   13.4490 N.ar    1  UNL1       -0.2287
      6 N          63.9117   88.8243   13.4491 N.ar    1  UNL1       -0.1681
      7 C          63.1602   88.4676   12.2009 C.ar    1  UNL1        0.0960
      8 C          62.5591   87.3302   11.4296 C.3     1  UNL1        0.1161
      9 C          61.2793   85.3281    7.2245 C.ar    1  UNL1        0.2576
     10 N          59.8111   85.5338    6.9960 N.ar    1  UNL1       -0.1873
     11 C          59.0540   86.5251    7.8292 C.ar    1  UNL1        0.2028
     12 N          59.7652   87.3106    8.8910 N.ar    1  UNL1       -0.2065
     13 C          61.2333   87.1049    9.1195 C.ar    1  UNL1        0.1663
     14 C          61.9903   86.1136    8.2862 C.ar    1  UNL1        0.2243
     15 F          63.4585   85.9079    8.5148 F       1  UNL1       -0.1963
     16 C          61.7126   84.1787    4.9352 C.3     1  UNL1        0.2543
     17 O          62.0364   84.3368    6.3912 O.3     1  UNL1       -0.4545
     18 C          64.8439   91.0934   14.5108 C.ar    1  UNL1        0.0841
     19 C          64.1313   91.4549   15.7802 C.ar    1  UNL1        0.0192
     20 C          64.8424   92.2404   16.8419 C.ar    1  UNL1        0.0029
     21 C          66.2662   92.6644   16.6343 C.ar    1  UNL1        0.0184
     22 C          66.9789   92.3029   15.3649 C.ar    1  UNL1        0.1072
     23 C          66.2677   91.5174   14.3031 C.ar    1  UNL1        0.0375
     24 S          68.4026   92.7268   15.1572 S.O2    1  UNL1        0.0105
     25 C          69.8264   93.1508   14.9496 C.3     1  UNL1        0.1816
     26 O          68.4209   92.0181   13.8353 O.2     1  UNL1       -0.1686
     27 O          68.3843   93.4356   16.4791 O.2     1  UNL1       -0.1686
     28 C          62.5707   85.8861   11.8353 C.3     1  UNL1        0.0240
     29 C          63.4238   85.4368   12.9844 C.3     1  UNL1        0.0021
     30 C          61.7293   84.8914   11.0920 C.3     1  UNL1        0.0021
@<TRIPOS>BOND
     1    16    17    1
     2    17     9    1
     3     9    10   ar
     4    10    11   ar
     5    11    12   ar
     6    12    13   ar
     7    13     1    1
     8     1     2    1
     9     2     3    1
    10     3     4   ar
    11     4     5   ar
    12     5    18    1
    13    18    19   ar
    14    19    20   ar
    15    20    21   ar
    16    21    22   ar
    17    22    24    1
    18    24    25    1
    19    24    26    2
    20    24    27    2
    21    22    23   ar
    22     5     6   ar
    23     6     7   ar
    24     7     8    1
    25     8    28    1
    26    28    29    1
    27    28    30    1
    28    13    14   ar
    29    14    15    1
    30    14     9   ar
    31     8     1    1
    32     7     3   ar
    33    23    18   ar
@<TRIPOS>MOLECULE
*****
 30 33 0 0 0
SMALL
GASTEIGER

@<TRIPOS>ATOM
      1 N          63.3236   84.1973   13.2214 N.pl3   1  UNL1       -0.2834
      2 C          63.9548   84.6972   14.4871 C.3     1  UNL1        0.1221
      3 C          64.0869   86.1877   14.3819 C.ar    1  UNL1        0.0337
      4 C          64.5586   87.4177   15.0992 C.ar    1  UNL1        0.0990
      5 N          64.3006   88.5993   14.2118 N.ar    1  UNL1       -0.2287
      6 N          63.6695   88.0995   12.9462 N.ar    1  UNL1       -0.1681
      7 C          63.5374   86.6090   13.0513 C.ar    1  UNL1        0.0960
      8 C          63.0656   85.3790   12.3341 C.3     1  UNL1        0.1161
      9 C          61.7315   80.5688   13.4403 C.ar    1  UNL1        0.2576
     10 N          62.3712   79.9066   12.2560 N.ar    1  UNL1       -0.1873
     11 C          63.3284   80.6747   11.3936 C.ar    1  UNL1        0.2028
     12 N          63.6459   82.1050   11.7155 N.ar    1  UNL1       -0.2065
     13 C          63.0061   82.7672   12.8997 C.ar    1  UNL1        0.1663
     14 C          62.0489   81.9989   13.7621 C.ar    1  UNL1        0.2243
     15 F          61.4092   82.6611   14.9462 F       1  UNL1       -0.1963
     16 C          59.3174   80.1577   14.3083 C.3     1  UNL1        0.2543
     17 O          60.7742   79.8006   14.3027 O.3     1  UNL1       -0.4545
     18 C          64.6181   90.0296   14.5336 C.ar    1  UNL1        0.0841
     19 C          64.3938   90.5538   15.9210 C.ar    1  UNL1        0.0192
     20 C          64.7113   91.9841   16.2427 C.ar    1  UNL1        0.0029
     21 C          65.2530   92.8902   15.1771 C.ar    1  UNL1        0.0184
     22 C          65.4773   92.3659   13.7897 C.ar    1  UNL1        0.1072
     23 C          65.1599   90.9356   13.4680 C.ar    1  UNL1        0.0375
     24 S          66.0191   93.2719   12.7240 S.O2    1  UNL1        0.0105
     25 C          66.5608   94.1778   11.6583 C.3     1  UNL1        0.1816
     26 O          66.4293   94.2617   13.7738 O.2     1  UNL1       -0.1686
     27 O          65.6089   92.2821   11.6741 O.2     1  UNL1       -0.1686
     28 C          62.4449   85.3377   10.9692 C.3     1  UNL1        0.0240
     29 C          63.1153   84.5780    9.8630 C.3     1  UNL1        0.0021
     30 C          61.1538   86.0561   10.7103 C.3     1  UNL1        0.0021
@<TRIPOS>BOND
     1    16    17    1
     2    17     9    1
     3     9    10   ar
     4    10    11   ar
     5    11    12   ar
     6    12    13   ar
     7    13     1    1
     8     1     2    1
     9     2     3    1
    10     3     4   ar
    11     4     5   ar
    12     5    18    1
    13    18    19   ar
    14    19    20   ar
    15    20    21   ar
    16    21    22   ar
    17    22    24    1
    18    24    25    1
    19    24    26    2
    20    24    27    2
    21    22    23   ar
    22     5     6   ar
    23     6     7   ar
    24     7     8    1
    25     8    28    1
    26    28    29    1
    27    28    30    1
    28    13    14   ar
    29    14    15    1
    30    14     9   ar
    31     8     1    1
    32     7     3   ar
    33    23    18   ar
@<TRIPOS>MOLECULE
*****
 30 33 0 0 0
SMALL
GASTEIGER

@<TRIPOS>ATOM
      1 N          63.2363   84.8105   13.5554 N.pl3   1  UNL1       -0.2834
      2 C          64.0360   85.3805   14.6893 C.3     1  UNL1        0.1221
      3 C          64.2600   86.8375   14.4123 C.ar    1  UNL1        0.0337
      4 C          64.8927   88.0902   14.9418 C.ar    1  UNL1        0.0990
      5 N          64.6224   89.1951   13.9640 N.ar    1  UNL1       -0.2287
      6 N          63.8227   88.6252   12.8300 N.ar    1  UNL1       -0.1681
      7 C          63.5987   87.1682   13.1071 C.ar    1  UNL1        0.0960
      8 C          62.9661   85.9155   12.5775 C.3     1  UNL1        0.1161
      9 C          62.9348   81.0807   12.2338 C.ar    1  UNL1        0.2576
     10 N          61.8852   80.5367   13.1572 N.ar    1  UNL1       -0.1873
     11 C          61.2860   81.4174   14.2133 C.ar    1  UNL1        0.2028
     12 N          61.7364   82.8420   14.3460 N.ar    1  UNL1       -0.2065
     13 C          62.7859   83.3860   13.4227 C.ar    1  UNL1        0.1663
     14 C          63.3851   82.5052   12.3665 C.ar    1  UNL1        0.2243
     15 F          64.4346   83.0492   11.4432 F       1  UNL1       -0.1963
     16 C          62.7118   79.7818    9.9948 C.3     1  UNL1        0.2543
     17 O          63.5339   80.1999   11.1777 O.3     1  UNL1       -0.4545
     18 C          65.0728   90.6197   14.0967 C.ar    1  UNL1        0.0841
     19 C          65.2498   91.2267   15.4569 C.ar    1  UNL1        0.0192
     20 C          65.7002   92.6514   15.5895 C.ar    1  UNL1        0.0029
     21 C          65.9735   93.4690   14.3620 C.ar    1  UNL1        0.0184
     22 C          65.7965   92.8620   13.0018 C.ar    1  UNL1        0.1072
     23 C          65.3461   91.4373   12.8692 C.ar    1  UNL1        0.0375
     24 S          66.0698   93.6795   11.7743 S.O2    1  UNL1        0.0105
     25 C          66.3432   94.4971   10.5468 C.3     1  UNL1        0.1816
     26 O          65.9522   92.4472   10.9272 O.2     1  UNL1       -0.1686
     27 O          66.1874   94.9120   12.6213 O.2     1  UNL1       -0.1686
     28 C          62.1980   85.7897   11.2952 C.3     1  UNL1        0.0240
     29 C          60.9283   86.5648   11.1024 C.3     1  UNL1        0.0021
     30 C          62.6996   84.8889   10.2058 C.3     1  UNL1        0.0021
@<TRIPOS>BOND
     1    16    17    1
     2    17     9    1
     3     9    10   ar
     4    10    11   ar
     5    11    12   ar
     6    12    13   ar
     7    13     1    1
     8     1     2    1
     9     2     3    1
    10     3     4   ar
    11     4     5   ar
    12     5    18    1
    13    18    19   ar
    14    19    20   ar
    15    20    21   ar
    16    21    22   ar
    17    22    24    1
    18    24    25    1
    19    24    26    2
    20    24    27    2
    21    22    23   ar
    22     5     6   ar
    23     6     7   ar
    24     7     8    1
    25     8    28    1
    26    28    29    1
    27    28    30    1
    28    13    14   ar
    29    14    15    1
    30    14     9   ar
    31     8     1    1
    32     7     3   ar
    33    23    18   ar
@<TRIPOS>MOLECULE
*****
 30 33 0 0 0
SMALL
GASTEIGER

@<TRIPOS>ATOM
      1 N          64.3676   89.3543   14.7461 N.pl3   1  UNL1       -0.2834
      2 C          64.7577   88.0384   15.3515 C.3     1  UNL1        0.1221
      3 C          64.3253   86.9504   14.4138 C.ar    1  UNL1        0.0337
      4 C          64.2991   85.4648   14.2085 C.ar    1  UNL1        0.0990
      5 N          63.6257   85.1900   12.8966 N.ar    1  UNL1       -0.2287
      6 N          63.2356   86.5058   12.2912 N.ar    1  UNL1       -0.1681
      7 C          63.6680   87.5938   13.2289 C.ar    1  UNL1        0.0960
      8 C          63.6942   89.0795   13.4342 C.3     1  UNL1        0.1161
      9 C          66.0686   92.8454   15.5633 C.ar    1  UNL1        0.2576
     10 N          65.0908   93.4134   16.5490 N.ar    1  UNL1       -0.1873
     11 C          63.8720   92.6283   16.9336 C.ar    1  UNL1        0.2028
     12 N          63.6309   91.2752   16.3326 N.ar    1  UNL1       -0.2065
     13 C          64.6087   90.7073   15.3471 C.ar    1  UNL1        0.1663
     14 C          65.8276   91.4925   14.9624 C.ar    1  UNL1        0.2243
     15 F          66.8053   90.9245   13.9768 F       1  UNL1       -0.1963
     16 C          68.6386   93.2097   15.6760 C.3     1  UNL1        0.2543
     17 O          67.2875   93.6306   15.1787 O.3     1  UNL1       -0.4545
     18 C          63.3846   83.8370   12.2957 C.ar    1  UNL1        0.0841
     19 C          63.7962   83.5610   10.8799 C.ar    1  UNL1        0.0192
     20 C          63.5551   82.2079   10.2790 C.ar    1  UNL1        0.0029
     21 C          62.9024   81.1308   11.0938 C.ar    1  UNL1        0.0184
     22 C          62.4908   81.4068   12.5095 C.ar    1  UNL1        0.1072
     23 C          62.7319   82.7599   13.1104 C.ar    1  UNL1        0.0375
     24 S          61.8380   80.3298   13.3244 S.O2    1  UNL1        0.0105
     25 C          61.1854   79.2528   14.1392 C.3     1  UNL1        0.1816
     26 O          61.1909   81.3735   14.1857 O.2     1  UNL1       -0.1686
     27 O          62.4852   79.2860   12.4631 O.2     1  UNL1       -0.1686
     28 C          63.1436   90.1095   12.4930 C.3     1  UNL1        0.0240
     29 C          64.0229   91.2193   11.9978 C.3     1  UNL1        0.0021
     30 C          61.7137   90.0297   12.0469 C.3     1  UNL1        0.0021
@<TRIPOS>BOND
     1    16    17    1
     2    17     9    1
     3     9    10   ar
     4    10    11   ar
     5    11    12   ar
     6    12    13   ar
     7    13     1    1
     8     1     2    1
     9     2     3    1
    10     3     4   ar
    11     4     5   ar
    12     5    18    1
    13    18    19   ar
    14    19    20   ar
    15    20    21   ar
    16    21    22   ar
    17    22    24    1
    18    24    25    1
    19    24    26    2
    20    24    27    2
    21    22    23   ar
    22     5     6   ar
    23     6     7   ar
    24     7     8    1
    25     8    28    1
    26    28    29    1
    27    28    30    1
    28    13    14   ar
    29    14    15    1
    30    14     9   ar
    31     8     1    1
    32     7     3   ar
    33    23    18   ar
@<TRIPOS>MOLECULE
*****
 30 33 0 0 0
SMALL
GASTEIGER

@<TRIPOS>ATOM
      1 N          65.6829   92.9664   12.5696 N.pl3   1  UNL1       -0.2834
      2 C          66.1332   92.5239   13.9303 C.3     1  UNL1        0.1221
      3 C          65.4270   91.2418   14.2581 C.ar    1  UNL1        0.0337
      4 C          65.2689   90.1760   15.3017 C.ar    1  UNL1        0.0990
      5 N          64.2845   89.1672   14.7884 N.ar    1  UNL1       -0.2287
      6 N          63.8342   89.6096   13.4277 N.ar    1  UNL1       -0.1681
      7 C          64.5403   90.8918   13.0999 C.ar    1  UNL1        0.0960
      8 C          64.6985   91.9576   12.0564 C.3     1  UNL1        0.1161
      9 C          67.2888   95.3172    9.8048 C.ar    1  UNL1        0.2576
     10 N          67.0460   96.6696   10.4068 N.ar    1  UNL1       -0.1873
     11 C          66.3489   96.7875   11.7297 C.ar    1  UNL1        0.2028
     12 N          65.8945   95.5530   12.4506 N.ar    1  UNL1       -0.2065
     13 C          66.1373   94.2007   11.8487 C.ar    1  UNL1        0.1663
     14 C          66.8344   94.0829   10.5257 C.ar    1  UNL1        0.2243
     15 F          67.0772   92.7306    9.9238 F       1  UNL1       -0.1963
     16 C          67.2094   95.3572    7.2082 C.3     1  UNL1        0.2543
     17 O          67.9859   95.1994    8.4818 O.3     1  UNL1       -0.4545
     18 C          63.8301   87.9328   15.5094 C.ar    1  UNL1        0.0841
     19 C          63.1617   88.0488   16.8472 C.ar    1  UNL1        0.0192
     20 C          62.7074   86.8143   17.5681 C.ar    1  UNL1        0.0029
     21 C          62.9214   85.4639   16.9512 C.ar    1  UNL1        0.0184
     22 C          63.5897   85.3479   15.6134 C.ar    1  UNL1        0.1072
     23 C          64.0441   86.5824   14.8925 C.ar    1  UNL1        0.0375
     24 S          63.8038   83.9975   14.9964 S.O2    1  UNL1        0.0105
     25 C          64.0178   82.6471   14.3795 C.3     1  UNL1        0.1816
     26 O          65.1107   84.4646   14.4274 O.2     1  UNL1       -0.1686
     27 O          62.4968   83.5305   15.5654 O.2     1  UNL1       -0.1686
     28 C          63.9956   92.0061   10.7321 C.3     1  UNL1        0.0240
     29 C          63.1421   90.8533   10.2933 C.3     1  UNL1        0.0021
     30 C          64.1462   93.2075    9.8467 C.3     1  UNL1        0.0021
@<TRIPOS>BOND
     1    16    17    1
     2    17     9    1
     3     9    10   ar
     4    10    11   ar
     5    11    12   ar
     6    12    13   ar
     7    13     1    1
     8     1     2    1
     9     2     3    1
    10     3     4   ar
    11     4     5   ar
    12     5    18    1
    13    18    19   ar
    14    19    20   ar
    15    20    21   ar
    16    21    22   ar
    17    22    24    1
    18    24    25    1
    19    24    26    2
    20    24    27    2
    21    22    23   ar
    22     5     6   ar
    23     6     7   ar
    24     7     8    1
    25     8    28    1
    26    28    29    1
    27    28    30    1
    28    13    14   ar
    29    14    15    1
    30    14     9   ar
    31     8     1    1
    32     7     3   ar
    33    23    18   ar
@<TRIPOS>MOLECULE
*****
 30 33 0 0 0
SMALL
GASTEIGER

@<TRIPOS>ATOM
      1 N          62.5537   83.9704   12.7667 N.pl3   1  UNL1       -0.2834
      2 C          62.1852   84.7872   11.5637 C.3     1  UNL1        0.1221
      3 C          62.6861   86.1844   11.7809 C.ar    1  UNL1        0.0337
      4 C          62.7679   87.5526   11.1716 C.ar    1  UNL1        0.0990
      5 N          63.4965   88.4449   12.1323 N.ar    1  UNL1       -0.2287
      6 N          63.8650   87.6282   13.3353 N.ar    1  UNL1       -0.1681
      7 C          63.3641   86.2311   13.1181 C.ar    1  UNL1        0.0960
      8 C          63.2823   84.8628   13.7274 C.3     1  UNL1        0.1161
      9 C          62.4268   80.0463   12.1886 C.ar    1  UNL1        0.2576
     10 N          61.6347   79.6089   13.3850 N.ar    1  UNL1       -0.1873
     11 C          61.1490   80.6254   14.3754 C.ar    1  UNL1        0.2028
     12 N          61.4554   82.0793   14.1692 N.ar    1  UNL1       -0.2065
     13 C          62.2474   82.5167   12.9728 C.ar    1  UNL1        0.1663
     14 C          62.7331   81.5000   11.9824 C.ar    1  UNL1        0.2243
     15 F          63.5251   81.9374   10.7860 F       1  UNL1       -0.1963
     16 C          62.7323   79.2688    9.7285 C.3     1  UNL1        0.2543
     17 O          62.9125   79.0296   11.1982 O.3     1  UNL1       -0.4545
     18 C          63.8028   89.8988   11.9262 C.ar    1  UNL1        0.0841
     19 C          63.2068   90.6332   10.7620 C.ar    1  UNL1        0.0192
     20 C          63.5132   92.0870   10.5560 C.ar    1  UNL1        0.0029
     21 C          64.4156   92.8065   11.5141 C.ar    1  UNL1        0.0184
     22 C          65.0116   92.0722   12.6783 C.ar    1  UNL1        0.1072
     23 C          64.7052   90.6183   12.8844 C.ar    1  UNL1        0.0375
     24 S          65.9140   92.7916   13.6365 S.O2    1  UNL1        0.0105
     25 C          66.8164   93.5110   14.5946 C.3     1  UNL1        0.1816
     26 O          65.0814   92.3055   14.7857 O.2     1  UNL1       -0.1686
     27 O          66.7466   93.2777   12.4873 O.2     1  UNL1       -0.1686
     28 C          63.8325   84.4580   15.0628 C.3     1  UNL1        0.0240
     29 C          64.6222   83.1895   15.1953 C.3     1  UNL1        0.0021
     30 C          63.5931   85.3215   16.2656 C.3     1  UNL1        0.0021
@<TRIPOS>BOND
     1    16    17    1
     2    17     9    1
     3     9    10   ar
     4    10    11   ar
     5    11    12   ar
     6    12    13   ar
     7    13     1    1
     8     1     2    1
     9     2     3    1
    10     3     4   ar
    11     4     5   ar
    12     5    18    1
    13    18    19   ar
    14    19    20   ar
    15    20    21   ar
    16    21    22   ar
    17    22    24    1
    18    24    25    1
    19    24    26    2
    20    24    27    2
    21    22    23   ar
    22     5     6   ar
    23     6     7   ar
    24     7     8    1
    25     8    28    1
    26    28    29    1
    27    28    30    1
    28    13    14   ar
    29    14    15    1
    30    14     9   ar
    31     8     1    1
    32     7     3   ar
    33    23    18   ar
@<TRIPOS>MOLECULE
*****
 30 33 0 0 0
SMALL
GASTEIGER

@<TRIPOS>ATOM
      1 N          61.5367   86.3708   10.3951 N.pl3   1  UNL1       -0.2834
      2 C          60.9328   85.9662    9.0829 C.3     1  UNL1        0.1221
      3 C          60.5087   87.2123    8.3638 C.ar    1  UNL1        0.0337
      4 C          59.8734   87.7324    7.1084 C.ar    1  UNL1        0.0990
      5 N          59.8226   89.2287    7.2003 N.ar    1  UNL1       -0.2287
      6 N          60.4264   89.6334    8.5124 N.ar    1  UNL1       -0.1681
      7 C          60.8505   88.3872    9.2315 C.ar    1  UNL1        0.0960
      8 C          61.4857   87.8672   10.4869 C.3     1  UNL1        0.1161
      9 C          63.4643   83.3245   12.0545 C.ar    1  UNL1        0.2576
     10 N          63.2075   83.5851   13.5092 N.ar    1  UNL1       -0.1873
     11 C          62.3937   84.7743   13.9259 C.ar    1  UNL1        0.2028
     12 N          61.8368   85.7029   12.8878 N.ar    1  UNL1       -0.2065
     13 C          62.0936   85.4423   11.4331 C.ar    1  UNL1        0.1663
     14 C          62.9074   84.2530   11.0165 C.ar    1  UNL1        0.2243
     15 F          63.1642   83.9925    9.5618 F       1  UNL1       -0.1963
     16 C          63.6591   81.0618   10.7926 C.3     1  UNL1        0.2543
     17 O          64.2781   82.1353   11.6379 O.3     1  UNL1       -0.4545
     18 C          59.2656   90.1573    6.1622 C.ar    1  UNL1        0.0841
     19 C          57.7848   90.3776    6.0700 C.ar    1  UNL1        0.0192
     20 C          57.2279   91.3062    5.0319 C.ar    1  UNL1        0.0029
     21 C          58.1518   92.0146    4.0861 C.ar    1  UNL1        0.0184
     22 C          59.6327   91.7943    4.1783 C.ar    1  UNL1        0.1072
     23 C          60.1895   90.8657    5.2164 C.ar    1  UNL1        0.0375
     24 S          60.5567   92.5026    3.2326 S.O2    1  UNL1        0.0105
     25 C          61.4806   93.2109    2.2867 C.3     1  UNL1        0.1816
     26 O          61.7321   91.8285    3.8759 O.2     1  UNL1       -0.1686
     27 O          59.3812   93.1767    2.5891 O.2     1  UNL1       -0.1686
     28 C          61.9828   88.6977   11.6328 C.3     1  UNL1        0.0240
     29 C          61.0934   89.7383   12.2462 C.3     1  UNL1        0.0021
     30 C          63.3692   88.4875   12.1655 C.3     1  UNL1        0.0021
@<TRIPOS>BOND
     1    16    17    1
     2    17     9    1
     3     9    10   ar
     4    10    11   ar
     5    11    12   ar
     6    12    13   ar
     7    13     1    1
     8     1     2    1
     9     2     3    1
    10     3     4   ar
    11     4     5   ar
    12     5    18    1
    13    18    19   ar
    14    19    20   ar
    15    20    21   ar
    16    21    22   ar
    17    22    24    1
    18    24    25    1
    19    24    26    2
    20    24    27    2
    21    22    23   ar
    22     5     6   ar
    23     6     7   ar
    24     7     8    1
    25     8    28    1
    26    28    29    1
    27    28    30    1
    28    13    14   ar
    29    14    15    1
    30    14     9   ar
    31     8     1    1
    32     7     3   ar
    33    23    18   ar
