@<TRIPOS>MOLECULE
*****
 43 46 0 0 0
SMALL
GASTEIGER

@<TRIPOS>ATOM
      1 S          62.6268   89.4819   11.7488 S.3     1  UNL1       -0.1362
      2 C          63.0122   90.8691   12.1696 C.3     1  UNL1        0.0776
      3 C          64.4563   91.2141   12.3826 C.3     1  UNL1        0.0899
      4 C          66.1319   93.1293   11.8587 C.2     1  UNL1        0.4014
      5 O          66.3663   93.3260   13.3271 O.2     1  UNL1       -0.2264
      6 N          65.1769   92.0734   11.3864 N.am    1  UNL1       -0.2711
      7 H          65.0231   91.9443   10.4226 H       1  UNL1        0.1527
      8 O          66.8525   93.9886   10.8625 O.3     1  UNL1       -0.4419
      9 C          68.0858   92.2667   10.7448 C.3     1  UNL1        0.0437
     10 C          67.6889   93.3543    9.7911 C.3     1  UNL1        0.1378
     11 C          67.2921   94.4418    8.8373 C.3     1  UNL1        0.0437
     12 C          68.5254   92.7198    8.7197 C.3     1  UNL1        0.0437
     13 C          65.1799   90.6999   13.5918 C.3     1  UNL1        0.0485
     14 C          64.4087   90.3094   14.8177 C.2     1  UNL1       -0.0003
     15 C          63.7993   91.2515   15.8133 C.2     1  UNL1        0.0942
     16 N          63.1254   90.4325   16.8740 N.2     1  UNL1       -0.2482
     17 C          63.3182   88.9843   16.5340 C.2     1  UNL1        0.0631
     18 C          62.8741   87.7251   17.2174 C.3     1  UNL1        0.0717
     19 C          63.2231   86.3899   16.6299 C.2     1  UNL1       -0.0198
     20 C          64.0162   86.3138   15.3590 C.2     1  UNL1       -0.0042
     21 C          64.4603   87.5730   14.6756 C.2     1  UNL1        0.0006
     22 C          64.1113   88.9082   15.2631 C.2     1  UNL1        0.0115
     23 C          62.0298   89.2482   10.3927 C.3     1  UNL1        0.0864
     24 C          61.1179   88.0790   10.1660 C.3     1  UNL1        0.1575
     25 C          60.2073   88.0580    8.9742 C.2     1  UNL1        0.2414
     26 O          59.4124   86.8256    8.6592 O.2     1  UNL1       -0.2733
     27 N          60.0918   89.2695    8.0974 N.am    1  UNL1       -0.2990
     28 H          60.6135   90.0784    8.3041 H       1  UNL1        0.1498
     29 C          59.1812   89.2486    6.9055 C.3     1  UNL1        0.1179
     30 C          59.2766   90.3294    5.8697 C.ar    1  UNL1        0.0166
     31 C          60.6082   90.6861    5.2784 C.ar    1  UNL1        0.0005
     32 C          60.7035   91.7669    4.2427 C.ar    1  UNL1        0.0204
     33 C          59.4673   92.4910    3.7982 C.ar    1  UNL1        0.0989
     34 N          58.1357   92.1342    4.3895 N.ar    1  UNL1       -0.2426
     35 C          58.0404   91.0535    5.4252 C.ar    1  UNL1        0.0962
     36 N          61.1165   86.9307   11.1312 N.pl3   1  UNL1       -0.3263
     37 H          60.5101   86.9403   11.9067 H       1  UNL1        0.1472
     38 C          62.0389   85.7679   10.9148 C.ar    1  UNL1        0.0449
     39 C          62.4566   84.9156   12.0763 C.ar    1  UNL1        0.0143
     40 C          63.3790   83.7528   11.8600 C.ar    1  UNL1        0.0013
     41 C          63.8838   83.4421   10.4821 C.ar    1  UNL1        0.0001
     42 C          63.4661   84.2944    9.3205 C.ar    1  UNL1        0.0013
     43 C          62.5437   85.4572    9.5368 C.ar    1  UNL1        0.0143
@<TRIPOS>BOND
     1     9    10    1
     2    10    11    1
     3    10    12    1
     4    10     8    1
     5     8     4    1
     6     4     5    2
     7     4     6   am
     8     6     3    1
     9     3     2    1
    10     2     1    1
    11     1    23    1
    12    23    24    1
    13    24    36    1
    14    36    38    1
    15    38    39   ar
    16    39    40   ar
    17    40    41   ar
    18    41    42   ar
    19    42    43   ar
    20    24    25    1
    21    25    26    2
    22    25    27   am
    23    27    29    1
    24    29    30    1
    25    30    31   ar
    26    31    32   ar
    27    32    33   ar
    28    33    34   ar
    29    34    35   ar
    30     3    13    1
    31    13    14    1
    32    14    15    2
    33    15    16    1
    34    16    17    2
    35    17    18    1
    36    18    19    1
    37    19    20    2
    38    20    21    1
    39    21    22    2
    40    43    38   ar
    41    35    30   ar
    42    22    14    1
    43    22    17    1
    44     6     7    1
    45    36    37    1
    46    27    28    1
@<TRIPOS>MOLECULE
*****
 43 46 0 0 0
SMALL
GASTEIGER

@<TRIPOS>ATOM
      1 S          62.8413   90.1058   10.0830 S.3     1  UNL1       -0.1362
      2 C          63.2305   91.5413   10.2773 C.3     1  UNL1        0.0776
      3 C          64.3227   91.8983   11.2415 C.3     1  UNL1        0.0899
      4 C          66.3788   93.3565   10.6124 C.2     1  UNL1        0.4014
      5 O          67.1067   92.1297   10.1483 O.2     1  UNL1       -0.2264
      6 N          64.9868   93.2407   11.1590 N.am    1  UNL1       -0.2711
      7 H          64.5091   94.0458   11.4636 H       1  UNL1        0.1527
      8 O          67.0430   94.6989   10.5298 O.3     1  UNL1       -0.4419
      9 C          65.8652   96.4629   10.5042 C.3     1  UNL1        0.0437
     10 C          66.6241   95.6793    9.4747 C.3     1  UNL1        0.1378
     11 C          67.3831   94.8956    8.4452 C.3     1  UNL1        0.0437
     12 C          66.2052   96.6597    8.4196 C.3     1  UNL1        0.0437
     13 C          64.7507   90.9128   12.2883 C.3     1  UNL1        0.0485
     14 C          65.0161   91.3756   13.6902 C.2     1  UNL1       -0.0003
     15 C          64.0018   91.4834   14.7901 C.2     1  UNL1        0.0942
     16 N          64.7013   91.9863   16.0180 N.2     1  UNL1       -0.2482
     17 C          66.1479   92.1894   15.6771 C.2     1  UNL1        0.0631
     18 C          67.3130   92.6692   16.4907 C.3     1  UNL1        0.0717
     19 C          68.6728   92.7716   15.8658 C.2     1  UNL1       -0.0198
     20 C          68.8673   92.3941   14.4271 C.2     1  UNL1       -0.0042
     21 C          67.7022   91.9143   13.6135 C.2     1  UNL1        0.0006
     22 C          66.3424   91.8119   14.2384 C.2     1  UNL1        0.0115
     23 C          61.7371   89.5103   10.9051 C.3     1  UNL1        0.0864
     24 C          61.5666   88.0211   10.9659 C.3     1  UNL1        0.1575
     25 C          62.3645   87.2142   11.9468 C.2     1  UNL1        0.2414
     26 O          63.4718   87.8610   12.7250 O.2     1  UNL1       -0.2733
     27 N          62.0552   85.7606   12.1494 N.am    1  UNL1       -0.2990
     28 H          61.3284   85.3361   11.6387 H       1  UNL1        0.1498
     29 C          62.8532   84.9537   13.1303 C.3     1  UNL1        0.1179
     30 C          62.7712   83.4560   13.1120 C.ar    1  UNL1        0.0166
     31 C          62.9596   82.7103   11.8241 C.ar    1  UNL1        0.0005
     32 C          62.8777   81.2127   11.8058 C.ar    1  UNL1        0.0204
     33 C          62.6072   80.4607   13.0752 C.ar    1  UNL1        0.0989
     34 N          62.4188   81.2064   14.3631 N.ar    1  UNL1       -0.2426
     35 C          62.5008   82.7040   14.3814 C.ar    1  UNL1        0.0962
     36 N          60.5981   87.3390   10.0457 N.pl3   1  UNL1       -0.3263
     37 H          59.6295   87.4645   10.1696 H       1  UNL1        0.1472
     38 C          61.1053   86.4657    8.9366 C.ar    1  UNL1        0.0449
     39 C          60.1833   86.0480    7.8296 C.ar    1  UNL1        0.0143
     40 C          60.6904   85.1747    6.7205 C.ar    1  UNL1        0.0013
     41 C          62.1195   84.7191    6.7184 C.ar    1  UNL1        0.0001
     42 C          63.0415   85.1367    7.8254 C.ar    1  UNL1        0.0013
     43 C          62.5344   86.0100    8.9345 C.ar    1  UNL1        0.0143
@<TRIPOS>BOND
     1     9    10    1
     2    10    11    1
     3    10    12    1
     4    10     8    1
     5     8     4    1
     6     4     5    2
     7     4     6   am
     8     6     3    1
     9     3     2    1
    10     2     1    1
    11     1    23    1
    12    23    24    1
    13    24    36    1
    14    36    38    1
    15    38    39   ar
    16    39    40   ar
    17    40    41   ar
    18    41    42   ar
    19    42    43   ar
    20    24    25    1
    21    25    26    2
    22    25    27   am
    23    27    29    1
    24    29    30    1
    25    30    31   ar
    26    31    32   ar
    27    32    33   ar
    28    33    34   ar
    29    34    35   ar
    30     3    13    1
    31    13    14    1
    32    14    15    2
    33    15    16    1
    34    16    17    2
    35    17    18    1
    36    18    19    1
    37    19    20    2
    38    20    21    1
    39    21    22    2
    40    43    38   ar
    41    35    30   ar
    42    22    14    1
    43    22    17    1
    44     6     7    1
    45    36    37    1
    46    27    28    1
@<TRIPOS>MOLECULE
*****
 43 46 0 0 0
SMALL
GASTEIGER

@<TRIPOS>ATOM
      1 S          61.8435   90.0424   11.4373 S.3     1  UNL1       -0.1362
      2 C          62.1554   89.4251   12.7683 C.3     1  UNL1        0.0776
      3 C          63.5797   89.3008   13.2220 C.3     1  UNL1        0.0899
      4 C          63.7966   87.7153   15.2688 C.2     1  UNL1        0.4014
      5 O          63.0415   88.7001   16.1115 O.2     1  UNL1       -0.2264
      6 N          64.0657   88.0157   13.8241 N.am    1  UNL1       -0.2711
      7 H          64.5612   87.3694   13.2709 H       1  UNL1        0.1527
      8 O          64.2825   86.4303   15.8709 O.3     1  UNL1       -0.4419
      9 C          64.6402   84.7763   14.5916 C.3     1  UNL1        0.0437
     10 C          63.5680   85.1454   15.5735 C.3     1  UNL1        0.1378
     11 C          62.4958   85.5144   16.5554 C.3     1  UNL1        0.0437
     12 C          62.8536   83.8604   15.2761 C.3     1  UNL1        0.0437
     13 C          64.5182   90.4616   13.0736 C.3     1  UNL1        0.0485
     14 C          64.9733   91.2179   14.2864 C.2     1  UNL1       -0.0003
     15 C          64.1319   91.5574   15.4809 C.2     1  UNL1        0.0942
     16 N          64.9884   92.3167   16.4503 N.2     1  UNL1       -0.2482
     17 C          66.3591   92.4465   15.8550 C.2     1  UNL1        0.0631
     18 C          67.6145   93.0953   16.3580 C.3     1  UNL1        0.0717
     19 C          68.8605   93.0650   15.5235 C.2     1  UNL1       -0.0198
     20 C          68.8512   92.3858   14.1861 C.2     1  UNL1       -0.0042
     21 C          67.5958   91.7370   13.6831 C.2     1  UNL1        0.0006
     22 C          66.3498   91.7673   14.5176 C.2     1  UNL1        0.0115
     23 C          61.9779   89.2297   10.1838 C.3     1  UNL1        0.0864
     24 C          61.0370   88.0906    9.9238 C.3     1  UNL1        0.1575
     25 C          60.0900   88.1503    8.7621 C.2     1  UNL1        0.2414
     26 O          59.2293   86.9663    8.4346 O.2     1  UNL1       -0.2733
     27 N          60.0038   89.3939    7.9280 N.am    1  UNL1       -0.2990
     28 H          60.5687   90.1710    8.1430 H       1  UNL1        0.1498
     29 C          59.0567   89.4536    6.7663 C.3     1  UNL1        0.1179
     30 C          59.2347   90.5003    5.7065 C.ar    1  UNL1        0.0166
     31 C          60.6006   90.7861    5.1566 C.ar    1  UNL1        0.0005
     32 C          60.7784   91.8327    4.0969 C.ar    1  UNL1        0.0204
     33 C          59.5904   92.5935    3.5872 C.ar    1  UNL1        0.0989
     34 N          58.2245   92.3077    4.1372 N.ar    1  UNL1       -0.2426
     35 C          58.0466   91.2610    5.1969 C.ar    1  UNL1        0.0962
     36 N          61.0432   86.8920   10.8256 N.pl3   1  UNL1       -0.3263
     37 H          60.4314   86.8523   11.5959 H       1  UNL1        0.1472
     38 C          61.9816   85.7538   10.5540 C.ar    1  UNL1        0.0449
     39 C          62.5482   85.5609    9.1785 C.ar    1  UNL1        0.0143
     40 C          63.4866   84.4228    8.9067 C.ar    1  UNL1        0.0013
     41 C          63.8585   83.4775   10.0104 C.ar    1  UNL1        0.0001
     42 C          63.2920   83.6703   11.3858 C.ar    1  UNL1        0.0013
     43 C          62.3535   84.8085   11.6576 C.ar    1  UNL1        0.0143
@<TRIPOS>BOND
     1     9    10    1
     2    10    11    1
     3    10    12    1
     4    10     8    1
     5     8     4    1
     6     4     5    2
     7     4     6   am
     8     6     3    1
     9     3     2    1
    10     2     1    1
    11     1    23    1
    12    23    24    1
    13    24    36    1
    14    36    38    1
    15    38    39   ar
    16    39    40   ar
    17    40    41   ar
    18    41    42   ar
    19    42    43   ar
    20    24    25    1
    21    25    26    2
    22    25    27   am
    23    27    29    1
    24    29    30    1
    25    30    31   ar
    26    31    32   ar
    27    32    33   ar
    28    33    34   ar
    29    34    35   ar
    30     3    13    1
    31    13    14    1
    32    14    15    2
    33    15    16    1
    34    16    17    2
    35    17    18    1
    36    18    19    1
    37    19    20    2
    38    20    21    1
    39    21    22    2
    40    43    38   ar
    41    35    30   ar
    42    22    14    1
    43    22    17    1
    44     6     7    1
    45    36    37    1
    46    27    28    1
@<TRIPOS>MOLECULE
*****
 43 46 0 0 0
SMALL
GASTEIGER

@<TRIPOS>ATOM
      1 S          62.9754   89.8645   11.2373 S.3     1  UNL1       -0.1362
      2 C          63.0946   91.1361   12.0239 C.3     1  UNL1        0.0776
      3 C          64.4401   91.6045   12.4930 C.3     1  UNL1        0.0899
      4 C          66.5453   93.0466   12.0042 C.2     1  UNL1        0.4014
      5 O          67.3946   92.0586   12.7475 O.2     1  UNL1       -0.2264
      6 N          65.0680   92.8195   11.8770 N.am    1  UNL1       -0.2711
      7 H          64.5106   93.4680   11.3891 H       1  UNL1        0.1527
      8 O          67.1732   94.2616   11.3882 O.3     1  UNL1       -0.4419
      9 C          66.4212   95.7372   10.0626 C.3     1  UNL1        0.0437
     10 C          67.1574   94.4406    9.8990 C.3     1  UNL1        0.1378
     11 C          67.8936   93.1440    9.7354 C.3     1  UNL1        0.0437
     12 C          67.1416   94.6197    8.4098 C.3     1  UNL1        0.0437
     13 C          65.1579   90.8578   13.5782 C.3     1  UNL1        0.0485
     14 C          64.4217   90.4464   14.8186 C.2     1  UNL1       -0.0003
     15 C          63.8328   91.3714   15.8421 C.2     1  UNL1        0.0942
     16 N          63.1924   90.5343   16.9094 N.2     1  UNL1       -0.2482
     17 C          63.3855   89.0920   16.5456 C.2     1  UNL1        0.0631
     18 C          62.9676   87.8211   17.2240 C.3     1  UNL1        0.0717
     19 C          63.3096   86.4959   16.6102 C.2     1  UNL1       -0.0198
     20 C          64.0693   86.4415   15.3180 C.2     1  UNL1       -0.0042
     21 C          64.4872   87.7124   14.6396 C.2     1  UNL1        0.0006
     22 C          64.1453   89.0376   15.2534 C.2     1  UNL1        0.0115
     23 C          62.8206   88.5537   11.9499 C.3     1  UNL1        0.0864
     24 C          61.9584   87.4769   11.3606 C.3     1  UNL1        0.1575
     25 C          62.5440   86.1301   11.0554 C.2     1  UNL1        0.2414
     26 O          62.6141   85.6466    9.6372 O.2     1  UNL1       -0.2733
     27 N          63.0596   85.2669   12.1685 N.am    1  UNL1       -0.2990
     28 H          63.0135   85.5842   13.0993 H       1  UNL1        0.1498
     29 C          63.6452   83.9201   11.8634 C.3     1  UNL1        0.1179
     30 C          63.0961   82.6945   12.5317 C.ar    1  UNL1        0.0166
     31 C          63.0892   81.3828   11.8041 C.ar    1  UNL1        0.0005
     32 C          62.5401   80.1574   12.4724 C.ar    1  UNL1        0.0204
     33 C          61.9978   80.2436   13.8683 C.ar    1  UNL1        0.0989
     34 N          62.0047   81.5553   14.5959 N.ar    1  UNL1       -0.2426
     35 C          62.5538   82.7807   13.9276 C.ar    1  UNL1        0.0962
     36 N          60.5105   87.7470   11.0764 N.pl3   1  UNL1       -0.3263
     37 H          59.8644   87.7968   11.8175 H       1  UNL1        0.1472
     38 C          60.0470   87.9411    9.6631 C.ar    1  UNL1        0.0449
     39 C          60.1665   89.2877    9.0130 C.ar    1  UNL1        0.0143
     40 C          59.7030   89.4819    7.5997 C.ar    1  UNL1        0.0013
     41 C          59.1201   88.3296    6.8365 C.ar    1  UNL1        0.0001
     42 C          59.0007   86.9831    7.4866 C.ar    1  UNL1        0.0013
     43 C          59.4641   86.7889    8.8999 C.ar    1  UNL1        0.0143
@<TRIPOS>BOND
     1     9    10    1
     2    10    11    1
     3    10    12    1
     4    10     8    1
     5     8     4    1
     6     4     5    2
     7     4     6   am
     8     6     3    1
     9     3     2    1
    10     2     1    1
    11     1    23    1
    12    23    24    1
    13    24    36    1
    14    36    38    1
    15    38    39   ar
    16    39    40   ar
    17    40    41   ar
    18    41    42   ar
    19    42    43   ar
    20    24    25    1
    21    25    26    2
    22    25    27   am
    23    27    29    1
    24    29    30    1
    25    30    31   ar
    26    31    32   ar
    27    32    33   ar
    28    33    34   ar
    29    34    35   ar
    30     3    13    1
    31    13    14    1
    32    14    15    2
    33    15    16    1
    34    16    17    2
    35    17    18    1
    36    18    19    1
    37    19    20    2
    38    20    21    1
    39    21    22    2
    40    43    38   ar
    41    35    30   ar
    42    22    14    1
    43    22    17    1
    44     6     7    1
    45    36    37    1
    46    27    28    1
@<TRIPOS>MOLECULE
*****
 43 46 0 0 0
SMALL
GASTEIGER

@<TRIPOS>ATOM
      1 S          62.0418   90.7579   10.9679 S.3     1  UNL1       -0.1362
      2 C          60.7002   90.1189   10.7637 C.3     1  UNL1        0.0776
      3 C          60.5238   89.0658    9.7102 C.3     1  UNL1        0.0899
      4 C          59.4674   88.8939    7.3428 C.2     1  UNL1        0.4014
      5 O          58.4263   87.9546    7.8756 O.2     1  UNL1       -0.2264
      6 N          60.5161   89.4494    8.2601 N.am    1  UNL1       -0.2711
      7 H          61.1994   90.0659    7.9104 H       1  UNL1        0.1527
      8 O          59.4597   89.2775    5.8927 O.3     1  UNL1       -0.4419
      9 C          57.6890   90.4449    5.8489 C.3     1  UNL1        0.0437
     10 C          59.1259   90.6836    5.4907 C.3     1  UNL1        0.1378
     11 C          60.5629   90.9222    5.1326 C.3     1  UNL1        0.0437
     12 C          58.7921   92.0896    5.0887 C.3     1  UNL1        0.0437
     13 C          60.3550   87.6290   10.1068 C.3     1  UNL1        0.0485
     14 C          61.3229   86.5955    9.6115 C.2     1  UNL1       -0.0003
     15 C          61.6661   86.3250    8.1766 C.2     1  UNL1        0.0942
     16 N          62.6728   85.2135    8.1425 N.2     1  UNL1       -0.2482
     17 C          62.9517   84.7971    9.5563 C.2     1  UNL1        0.0631
     18 C          63.8576   83.7506   10.1342 C.3     1  UNL1        0.0717
     19 C          63.9292   83.5582   11.6201 C.2     1  UNL1       -0.0198
     20 C          63.0949   84.4124   12.5280 C.2     1  UNL1       -0.0042
     21 C          62.1890   85.4589   11.9500 C.2     1  UNL1        0.0006
     22 C          62.1174   85.6513   10.4642 C.2     1  UNL1        0.0115
     23 C          63.1144   90.0264   11.7191 C.3     1  UNL1        0.0864
     24 C          63.6264   90.5735   13.0186 C.3     1  UNL1        0.1575
     25 C          64.8587   91.4287   13.0388 C.2     1  UNL1        0.2414
     26 O          65.9553   91.1408   14.0208 O.2     1  UNL1       -0.2733
     27 N          64.9941   92.5716   12.0769 N.am    1  UNL1       -0.2990
     28 H          64.2743   92.7605   11.4323 H       1  UNL1        0.1498
     29 C          66.2264   93.4267   12.0971 C.3     1  UNL1        0.1179
     30 C          66.5593   94.2905   10.9167 C.ar    1  UNL1        0.0166
     31 C          67.1809   93.6828    9.6942 C.ar    1  UNL1        0.0005
     32 C          67.5138   94.5465    8.5140 C.ar    1  UNL1        0.0204
     33 C          67.2252   96.0179    8.5561 C.ar    1  UNL1        0.0989
     34 N          66.6036   96.6256    9.7786 N.ar    1  UNL1       -0.2426
     35 C          66.2707   95.7618   10.9588 C.ar    1  UNL1        0.0962
     36 N          62.9062   90.2656   14.2978 N.pl3   1  UNL1       -0.3263
     37 H          62.2365   90.8956   14.6496 H       1  UNL1        0.1472
     38 C          63.2062   88.9977   15.0410 C.ar    1  UNL1        0.0449
     39 C          64.0345   87.9273   14.3941 C.ar    1  UNL1        0.0143
     40 C          64.3346   86.6594   15.1373 C.ar    1  UNL1        0.0013
     41 C          63.8064   86.4618   16.5272 C.ar    1  UNL1        0.0001
     42 C          62.9782   87.5322   17.1741 C.ar    1  UNL1        0.0013
     43 C          62.6781   88.8001   16.4309 C.ar    1  UNL1        0.0143
@<TRIPOS>BOND
     1     9    10    1
     2    10    11    1
     3    10    12    1
     4    10     8    1
     5     8     4    1
     6     4     5    2
     7     4     6   am
     8     6     3    1
     9     3     2    1
    10     2     1    1
    11     1    23    1
    12    23    24    1
    13    24    36    1
    14    36    38    1
    15    38    39   ar
    16    39    40   ar
    17    40    41   ar
    18    41    42   ar
    19    42    43   ar
    20    24    25    1
    21    25    26    2
    22    25    27   am
    23    27    29    1
    24    29    30    1
    25    30    31   ar
    26    31    32   ar
    27    32    33   ar
    28    33    34   ar
    29    34    35   ar
    30     3    13    1
    31    13    14    1
    32    14    15    2
    33    15    16    1
    34    16    17    2
    35    17    18    1
    36    18    19    1
    37    19    20    2
    38    20    21    1
    39    21    22    2
    40    43    38   ar
    41    35    30   ar
    42    22    14    1
    43    22    17    1
    44     6     7    1
    45    36    37    1
    46    27    28    1
@<TRIPOS>MOLECULE
*****
 43 46 0 0 0
SMALL
GASTEIGER

@<TRIPOS>ATOM
      1 S          61.8619   89.8454   10.3754 S.3     1  UNL1       -0.1362
      2 C          62.7081   88.7377   10.9295 C.3     1  UNL1        0.0776
      3 C          63.0578   88.7190   12.3880 C.3     1  UNL1        0.0899
      4 C          63.0805   86.1603   12.8380 C.2     1  UNL1        0.4014
      5 O          61.7870   86.0177   12.0920 O.2     1  UNL1       -0.2264
      6 N          63.7158   87.5110   12.9860 N.am    1  UNL1       -0.2711
      7 H          64.5648   87.6046   13.4757 H       1  UNL1        0.1527
      8 O          63.7385   84.9523   13.4361 O.3     1  UNL1       -0.4419
      9 C          62.3878   83.7767   14.5734 C.3     1  UNL1        0.0437
     10 C          63.1126   83.5990   13.2723 C.3     1  UNL1        0.1378
     11 C          63.8374   83.4213   11.9711 C.3     1  UNL1        0.0437
     12 C          62.4866   82.2458   13.1085 C.3     1  UNL1        0.0437
     13 C          62.7495   89.9084   13.2485 C.3     1  UNL1        0.0485
     14 C          63.8532   90.8275   13.6810 C.2     1  UNL1       -0.0003
     15 C          64.3523   91.0069   15.0841 C.2     1  UNL1        0.0942
     16 N          65.4592   92.0189   15.0565 N.2     1  UNL1       -0.2482
     17 C          65.6442   92.4649   13.6363 C.2     1  UNL1        0.0631
     18 C          66.5882   93.4464   13.0074 C.3     1  UNL1        0.0717
     19 C          66.5396   93.6915   11.5284 C.2     1  UNL1       -0.0198
     20 C          65.5471   92.9552   10.6783 C.2     1  UNL1       -0.0042
     21 C          64.6031   91.9738   11.3072 C.2     1  UNL1        0.0006
     22 C          64.6516   91.7286   12.7862 C.2     1  UNL1        0.0115
     23 C          60.4123   89.6033   10.0750 C.3     1  UNL1        0.0864
     24 C          60.0135   88.4927    9.1489 C.3     1  UNL1        0.1575
     25 C          59.3349   88.8075    7.8488 C.2     1  UNL1        0.2414
     26 O          58.2161   87.9378    7.3569 O.2     1  UNL1       -0.2733
     27 N          59.7750   89.9920    7.0407 N.am    1  UNL1       -0.2990
     28 H          60.5093   90.5628    7.3636 H       1  UNL1        0.1498
     29 C          59.0964   90.3069    5.7406 C.3     1  UNL1        0.1179
     30 C          59.7798   91.1795    4.7298 C.ar    1  UNL1        0.0166
     31 C          61.2473   91.0145    4.4666 C.ar    1  UNL1        0.0005
     32 C          61.9307   91.8871    3.4558 C.ar    1  UNL1        0.0204
     33 C          61.1466   92.9246    2.7083 C.ar    1  UNL1        0.0989
     34 N          59.6791   93.0896    2.9715 N.ar    1  UNL1       -0.2426
     35 C          58.9958   92.2170    3.9823 C.ar    1  UNL1        0.0962
     36 N          60.2934   87.0673    9.5230 N.pl3   1  UNL1       -0.3263
     37 H          59.9633   86.7090   10.3785 H       1  UNL1        0.1472
     38 C          61.0763   86.1878    8.5937 C.ar    1  UNL1        0.0449
     39 C          60.4158   85.6026    7.3807 C.ar    1  UNL1        0.0143
     40 C          61.1986   84.7232    6.4513 C.ar    1  UNL1        0.0013
     41 C          62.6418   84.4289    6.7349 C.ar    1  UNL1        0.0001
     42 C          63.3023   85.0141    7.9480 C.ar    1  UNL1        0.0013
     43 C          62.5195   85.8935    8.8773 C.ar    1  UNL1        0.0143
@<TRIPOS>BOND
     1     9    10    1
     2    10    11    1
     3    10    12    1
     4    10     8    1
     5     8     4    1
     6     4     5    2
     7     4     6   am
     8     6     3    1
     9     3     2    1
    10     2     1    1
    11     1    23    1
    12    23    24    1
    13    24    36    1
    14    36    38    1
    15    38    39   ar
    16    39    40   ar
    17    40    41   ar
    18    41    42   ar
    19    42    43   ar
    20    24    25    1
    21    25    26    2
    22    25    27   am
    23    27    29    1
    24    29    30    1
    25    30    31   ar
    26    31    32   ar
    27    32    33   ar
    28    33    34   ar
    29    34    35   ar
    30     3    13    1
    31    13    14    1
    32    14    15    2
    33    15    16    1
    34    16    17    2
    35    17    18    1
    36    18    19    1
    37    19    20    2
    38    20    21    1
    39    21    22    2
    40    43    38   ar
    41    35    30   ar
    42    22    14    1
    43    22    17    1
    44     6     7    1
    45    36    37    1
    46    27    28    1
@<TRIPOS>MOLECULE
*****
 43 46 0 0 0
SMALL
GASTEIGER

@<TRIPOS>ATOM
      1 S          62.2077   90.5317   10.9363 S.3     1  UNL1       -0.1362
      2 C          60.7453   90.3972   10.6311 C.3     1  UNL1        0.0776
      3 C          60.2827   89.4171    9.5940 C.3     1  UNL1        0.0899
      4 C          59.4286   89.0718    7.1647 C.2     1  UNL1        0.4014
      5 O          58.5231   87.9741    7.6392 O.2     1  UNL1       -0.2264
      6 N          60.3084   89.7933    8.1422 N.am    1  UNL1       -0.2711
      7 H          60.9028   90.5137    7.8308 H       1  UNL1        0.1527
      8 O          59.4544   89.4480    5.7129 O.3     1  UNL1       -0.4419
      9 C          60.6759   91.0231    4.9871 C.3     1  UNL1        0.0437
     10 C          59.2174   90.8711    5.3026 C.3     1  UNL1        0.1378
     11 C          57.7588   90.7192    5.6180 C.3     1  UNL1        0.0437
     12 C          58.9804   92.2943    4.8922 C.3     1  UNL1        0.0437
     13 C          59.7943   88.0608   10.0089 C.3     1  UNL1        0.0485
     14 C          60.7587   87.0525   10.5596 C.2     1  UNL1       -0.0003
     15 C          61.0168   86.7811   12.0121 C.2     1  UNL1        0.0942
     16 N          62.0520   85.6995   12.1047 N.2     1  UNL1       -0.2482
     17 C          62.4336   85.3024   10.7095 C.2     1  UNL1        0.0631
     18 C          63.4057   84.2875   10.1852 C.3     1  UNL1        0.0717
     19 C          63.5785   84.1087    8.7060 C.2     1  UNL1       -0.0198
     20 C          62.7792   84.9449    7.7511 C.2     1  UNL1       -0.0042
     21 C          61.8071   85.9599    8.2753 C.2     1  UNL1        0.0006
     22 C          61.6343   86.1386    9.7546 C.2     1  UNL1        0.0115
     23 C          62.8863   89.5227   11.8146 C.3     1  UNL1        0.0864
     24 C          63.4412   89.9387   13.1447 C.3     1  UNL1        0.1575
     25 C          63.6121   88.9243   14.2365 C.2     1  UNL1        0.2414
     26 O          63.2620   89.2790   15.6513 O.2     1  UNL1       -0.2733
     27 N          64.1331   87.5554   13.9134 N.am    1  UNL1       -0.2990
     28 H          64.3629   87.3226   12.9848 H       1  UNL1        0.1498
     29 C          64.3040   86.5410   15.0051 C.3     1  UNL1        0.1179
     30 C          63.9845   85.0986   14.7454 C.ar    1  UNL1        0.0166
     31 C          64.7442   84.3388   13.6987 C.ar    1  UNL1        0.0005
     32 C          64.4247   82.8964   13.4391 C.ar    1  UNL1        0.0204
     33 C          63.3456   82.2138   14.2261 C.ar    1  UNL1        0.0989
     34 N          62.5859   82.9736   15.2729 N.ar    1  UNL1       -0.2426
     35 C          62.9054   84.4159   15.5325 C.ar    1  UNL1        0.0962
     36 N          63.8251   91.3690   13.3831 N.pl3   1  UNL1       -0.3263
     37 H          63.1744   92.0881   13.2137 H       1  UNL1        0.1472
     38 C          65.2005   91.7037   13.8794 C.ar    1  UNL1        0.0449
     39 C          65.4197   92.0110   15.3311 C.ar    1  UNL1        0.0143
     40 C          66.7950   92.3457   15.8275 C.ar    1  UNL1        0.0013
     41 C          67.9511   92.3731   14.8722 C.ar    1  UNL1        0.0001
     42 C          67.7319   92.0658   13.4205 C.ar    1  UNL1        0.0013
     43 C          66.3566   91.7311   12.9241 C.ar    1  UNL1        0.0143
@<TRIPOS>BOND
     1     9    10    1
     2    10    11    1
     3    10    12    1
     4    10     8    1
     5     8     4    1
     6     4     5    2
     7     4     6   am
     8     6     3    1
     9     3     2    1
    10     2     1    1
    11     1    23    1
    12    23    24    1
    13    24    36    1
    14    36    38    1
    15    38    39   ar
    16    39    40   ar
    17    40    41   ar
    18    41    42   ar
    19    42    43   ar
    20    24    25    1
    21    25    26    2
    22    25    27   am
    23    27    29    1
    24    29    30    1
    25    30    31   ar
    26    31    32   ar
    27    32    33   ar
    28    33    34   ar
    29    34    35   ar
    30     3    13    1
    31    13    14    1
    32    14    15    2
    33    15    16    1
    34    16    17    2
    35    17    18    1
    36    18    19    1
    37    19    20    2
    38    20    21    1
    39    21    22    2
    40    43    38   ar
    41    35    30   ar
    42    22    14    1
    43    22    17    1
    44     6     7    1
    45    36    37    1
    46    27    28    1
@<TRIPOS>MOLECULE
*****
 43 46 0 0 0
SMALL
GASTEIGER

@<TRIPOS>ATOM
      1 S          64.8099   87.2154   14.9564 S.3     1  UNL1       -0.1362
      2 C          63.9553   88.4162   15.2353 C.3     1  UNL1        0.0776
      3 C          64.2786   89.7323   14.5924 C.3     1  UNL1        0.0899
      4 C          62.6660   90.0475   12.5799 C.2     1  UNL1        0.4014
      5 O          63.2084   88.7990   11.9499 O.2     1  UNL1       -0.2264
      6 N          63.2011   90.5141   13.9012 N.am    1  UNL1       -0.2711
      7 H          62.8451   91.3336   14.3148 H       1  UNL1        0.1527
      8 O          61.5885   90.8293   11.8887 O.3     1  UNL1       -0.4419
      9 C          59.7038   89.9435   11.4849 C.3     1  UNL1        0.0437
     10 C          60.9198   90.2681   10.6689 C.3     1  UNL1        0.1378
     11 C          62.1358   90.5928    9.8529 C.3     1  UNL1        0.0437
     12 C          60.2510   89.7070    9.4492 C.3     1  UNL1        0.0437
     13 C          65.6794   90.2667   14.6409 C.3     1  UNL1        0.0485
     14 C          65.9423   91.7108   14.3320 C.2     1  UNL1       -0.0003
     15 C          66.3359   92.7667   15.3220 C.2     1  UNL1        0.0942
     16 N          66.4946   94.0610   14.5807 N.2     1  UNL1       -0.2482
     17 C          66.1991   93.8051   13.1325 C.2     1  UNL1        0.0631
     18 C          66.1967   94.7070   11.9340 C.3     1  UNL1        0.0717
     19 C          65.8530   94.1563   10.5817 C.2     1  UNL1       -0.0198
     20 C          65.5116   92.7038   10.4280 C.2     1  UNL1       -0.0042
     21 C          65.5140   91.8019   11.6266 C.2     1  UNL1        0.0006
     22 C          65.8578   92.3525   12.9788 C.2     1  UNL1        0.0115
     23 C          64.3098   85.8432   15.2986 C.3     1  UNL1        0.0864
     24 C          63.8757   84.9095   14.2077 C.3     1  UNL1        0.1575
     25 C          62.6590   85.2263   13.3895 C.2     1  UNL1        0.2414
     26 O          61.3042   84.7850   13.8582 O.2     1  UNL1       -0.2733
     27 N          62.7973   85.9843   12.1025 N.am    1  UNL1       -0.2990
     28 H          63.6865   86.2739   11.7949 H       1  UNL1        0.1498
     29 C          61.5807   86.3010   11.2843 C.3     1  UNL1        0.1179
     30 C          61.5476   85.9559    9.8248 C.ar    1  UNL1        0.0166
     31 C          62.7406   85.3166    9.1782 C.ar    1  UNL1        0.0005
     32 C          62.7075   84.9715    7.7188 C.ar    1  UNL1        0.0204
     33 C          61.4815   85.2658    6.9061 C.ar    1  UNL1        0.0989
     34 N          60.2886   85.9051    7.5528 N.ar    1  UNL1       -0.2426
     35 C          60.3217   86.2502    9.0121 C.ar    1  UNL1        0.0962
     36 N          64.6582   83.6592   13.9351 N.pl3   1  UNL1       -0.3263
     37 H          65.5034   83.4937   14.4120 H       1  UNL1        0.1472
     38 C          64.1528   82.6609   12.9361 C.ar    1  UNL1        0.0449
     39 C          64.4370   82.8518   11.4757 C.ar    1  UNL1        0.0143
     40 C          63.9317   81.8536   10.4766 C.ar    1  UNL1        0.0013
     41 C          63.1423   80.6645   10.9379 C.ar    1  UNL1        0.0001
     42 C          62.8581   80.4736   12.3983 C.ar    1  UNL1        0.0013
     43 C          63.3634   81.4718   13.3974 C.ar    1  UNL1        0.0143
@<TRIPOS>BOND
     1     9    10    1
     2    10    11    1
     3    10    12    1
     4    10     8    1
     5     8     4    1
     6     4     5    2
     7     4     6   am
     8     6     3    1
     9     3     2    1
    10     2     1    1
    11     1    23    1
    12    23    24    1
    13    24    36    1
    14    36    38    1
    15    38    39   ar
    16    39    40   ar
    17    40    41   ar
    18    41    42   ar
    19    42    43   ar
    20    24    25    1
    21    25    26    2
    22    25    27   am
    23    27    29    1
    24    29    30    1
    25    30    31   ar
    26    31    32   ar
    27    32    33   ar
    28    33    34   ar
    29    34    35   ar
    30     3    13    1
    31    13    14    1
    32    14    15    2
    33    15    16    1
    34    16    17    2
    35    17    18    1
    36    18    19    1
    37    19    20    2
    38    20    21    1
    39    21    22    2
    40    43    38   ar
    41    35    30   ar
    42    22    14    1
    43    22    17    1
    44     6     7    1
    45    36    37    1
    46    27    28    1
@<TRIPOS>MOLECULE
*****
 43 46 0 0 0
SMALL
GASTEIGER

@<TRIPOS>ATOM
      1 S          61.8974   85.5936   10.4155 S.3     1  UNL1       -0.1362
      2 C          61.9759   85.4412   11.9056 C.3     1  UNL1        0.0776
      3 C          63.2273   84.9112   12.5404 C.3     1  UNL1        0.0899
      4 C          63.2062   85.4978   15.0713 C.2     1  UNL1        0.4014
      5 O          61.9748   84.6610   15.2549 O.2     1  UNL1       -0.2264
      6 N          63.8324   85.6228   13.7141 N.am    1  UNL1       -0.2711
      7 H          64.6405   86.1720   13.5935 H       1  UNL1        0.1527
      8 O          63.8112   86.2094   16.2450 O.3     1  UNL1       -0.4419
      9 C          62.6392   87.1325   17.7530 C.3     1  UNL1        0.0437
     10 C          63.4048   87.6189   16.5583 C.3     1  UNL1        0.1378
     11 C          64.1704   88.1053   15.3637 C.3     1  UNL1        0.0437
     12 C          62.9984   89.0283   16.8718 C.3     1  UNL1        0.0437
     13 C          63.8738   83.6694   12.0015 C.3     1  UNL1        0.0485
     14 C          63.4510   82.3229   12.5095 C.2     1  UNL1       -0.0003
     15 C          63.2238   81.9538   13.9455 C.2     1  UNL1        0.0942
     16 N          62.8136   80.5118   13.9941 N.2     1  UNL1       -0.2482
     17 C          62.7874   79.9896   12.5882 C.2     1  UNL1        0.0631
     18 C          62.4557   78.6396   12.0250 C.3     1  UNL1        0.0717
     19 C          62.5179   78.4089   10.5442 C.2     1  UNL1       -0.0198
     20 C          62.9119   79.5282    9.6266 C.2     1  UNL1       -0.0042
     21 C          63.2436   80.8782   10.1898 C.2     1  UNL1        0.0006
     22 C          63.1813   81.1090   11.6706 C.2     1  UNL1        0.0115
     23 C          62.2002   86.9183    9.7802 C.3     1  UNL1        0.0864
     24 C          61.1487   87.9872    9.7370 C.3     1  UNL1        0.1575
     25 C          60.2153   88.0742    8.5660 C.2     1  UNL1        0.2414
     26 O          59.5280   86.8401    8.0615 O.2     1  UNL1       -0.2733
     27 N          59.9692   89.3953    7.8997 N.am    1  UNL1       -0.2990
     28 H          60.4204   90.2053    8.2308 H       1  UNL1        0.1498
     29 C          59.0358   89.4823    6.7287 C.3     1  UNL1        0.1179
     30 C          59.2503   90.5279    5.6746 C.ar    1  UNL1        0.0166
     31 C          60.6270   90.7753    5.1328 C.ar    1  UNL1        0.0005
     32 C          60.8414   91.8208    4.0788 C.ar    1  UNL1        0.0204
     33 C          59.6792   92.6188    3.5666 C.ar    1  UNL1        0.0989
     34 N          58.3025   92.3714    4.1083 N.ar    1  UNL1       -0.2426
     35 C          58.0881   91.3259    5.1623 C.ar    1  UNL1        0.0962
     36 N          61.0307   88.9691   10.8648 N.pl3   1  UNL1       -0.3263
     37 H          60.2011   89.0147   11.3930 H       1  UNL1        0.1472
     38 C          62.1764   89.8817   11.1878 C.ar    1  UNL1        0.0449
     39 C          62.7588   89.8938   12.5701 C.ar    1  UNL1        0.0143
     40 C          63.9046   90.8063   12.8932 C.ar    1  UNL1        0.0013
     41 C          64.4681   91.7067   11.8340 C.ar    1  UNL1        0.0001
     42 C          63.8857   91.6946   10.4518 C.ar    1  UNL1        0.0013
     43 C          62.7399   90.7821   10.1286 C.ar    1  UNL1        0.0143
@<TRIPOS>BOND
     1     9    10    1
     2    10    11    1
     3    10    12    1
     4    10     8    1
     5     8     4    1
     6     4     5    2
     7     4     6   am
     8     6     3    1
     9     3     2    1
    10     2     1    1
    11     1    23    1
    12    23    24    1
    13    24    36    1
    14    36    38    1
    15    38    39   ar
    16    39    40   ar
    17    40    41   ar
    18    41    42   ar
    19    42    43   ar
    20    24    25    1
    21    25    26    2
    22    25    27   am
    23    27    29    1
    24    29    30    1
    25    30    31   ar
    26    31    32   ar
    27    32    33   ar
    28    33    34   ar
    29    34    35   ar
    30     3    13    1
    31    13    14    1
    32    14    15    2
    33    15    16    1
    34    16    17    2
    35    17    18    1
    36    18    19    1
    37    19    20    2
    38    20    21    1
    39    21    22    2
    40    43    38   ar
    41    35    30   ar
    42    22    14    1
    43    22    17    1
    44     6     7    1
    45    36    37    1
    46    27    28    1
