@<TRIPOS>MOLECULE
*****
 25 28 0 0 0
SMALL
GASTEIGER

@<TRIPOS>ATOM
      1 C          65.3284   92.5920   12.5380 C.ar    1  UNL1        0.1537
      2 C          66.0001   92.2871   13.8440 C.ar    1  UNL1        0.1332
      3 N          65.5954   91.0758   14.6307 N.ar    1  UNL1       -0.2392
      4 C          64.5189   90.1694   14.1113 C.ar    1  UNL1        0.1059
      5 C          63.8472   90.4744   12.8052 C.ar    1  UNL1        0.1537
      6 N          64.2520   91.6857   12.0186 N.ar    1  UNL1       -0.2227
      7 C          64.1142   88.9581   14.8980 C.ar    1  UNL1        0.0498
      8 C          64.4359   87.5868   14.3821 C.ar    1  UNL1        0.0245
      9 C          64.0312   86.3755   15.1688 C.ar    1  UNL1        0.0991
     10 N          63.3047   86.5354   16.4714 N.ar    1  UNL1       -0.2400
     11 C          62.9830   87.9066   16.9873 C.ar    1  UNL1        0.1285
     12 C          63.3877   89.1180   16.2006 C.ar    1  UNL1        0.1606
     13 F          63.0660   90.4892   16.7165 F       1  UNL1       -0.2025
     14 C          62.7707   89.5680   12.2859 C.ar    1  UNL1        0.2494
     15 N          61.2929   89.7934   12.4091 N.ar    1  UNL1       -0.2052
     16 C          60.5919   88.6418   11.7515 C.ar    1  UNL1        0.1427
     17 C          61.6365   87.7047   11.2217 C.ar    1  UNL1        0.2022
     18 O          62.9831   88.2772   11.5520 O.2     1  UNL1       -0.4300
     19 O          67.1322   92.3015   10.1585 O.2     1  UNL1       -0.2747
     20 C          66.6350   93.6581   10.5615 C.2     1  UNL1        0.2267
     21 N          65.7332   93.8034   11.7513 N.am    1  UNL1       -0.2681
     22 H          65.4069   94.6938   12.0158 H       1  UNL1        0.1563
     23 C          67.0398   94.8695    9.7748 C.3     1  UNL1        0.0769
     24 C          67.1893   96.3581    9.6670 C.3     1  UNL1        0.0096
     25 C          67.5912   95.4790    8.5200 C.3     1  UNL1        0.0096
@<TRIPOS>BOND
     1    19    20    2
     2    20    21   am
     3    21     1    1
     4     1     2   ar
     5     2     3   ar
     6     3     4   ar
     7     4     7    1
     8     7     8   ar
     9     8     9   ar
    10     9    10   ar
    11    10    11   ar
    12    11    12   ar
    13    12    13    1
    14     4     5   ar
    15     5    14    1
    16    14    15   ar
    17    15    16   ar
    18    16    17   ar
    19    17    18   ar
    20     5     6   ar
    21    20    23    1
    22    23    24    1
    23    24    25    1
    24     6     1   ar
    25    25    23    1
    26    12     7   ar
    27    18    14   ar
    28    21    22    1
@<TRIPOS>MOLECULE
*****
 25 28 0 0 0
SMALL
GASTEIGER

@<TRIPOS>ATOM
      1 C          63.7369   85.2703   13.3272 C.ar    1  UNL1        0.1537
      2 C          64.5224   85.5172   14.5809 C.ar    1  UNL1        0.1332
      3 N          64.7344   86.9195   15.0692 N.ar    1  UNL1       -0.2392
      4 C          64.1609   88.0750   14.3036 C.ar    1  UNL1        0.1059
      5 C          63.3754   87.8281   13.0498 C.ar    1  UNL1        0.1537
      6 N          63.1634   86.4257   12.5616 N.ar    1  UNL1       -0.2227
      7 C          64.3729   89.4774   14.7919 C.ar    1  UNL1        0.0498
      8 C          65.3907   90.3568   14.1280 C.ar    1  UNL1        0.0245
      9 C          65.6028   91.7592   14.6162 C.ar    1  UNL1        0.0991
     10 N          64.7970   92.2822   15.7684 N.ar    1  UNL1       -0.2400
     11 C          63.7792   91.4027   16.4322 C.ar    1  UNL1        0.1285
     12 C          63.5672   90.0003   15.9439 C.ar    1  UNL1        0.1606
     13 F          62.5494   89.1209   16.6078 F       1  UNL1       -0.2025
     14 C          62.8019   88.9835   12.2842 C.ar    1  UNL1        0.2494
     15 N          61.3621   89.4036   12.2694 N.ar    1  UNL1       -0.2052
     16 C          61.2379   90.6015   11.3751 C.ar    1  UNL1        0.1427
     17 C          62.6010   90.9216   10.8372 C.ar    1  UNL1        0.2022
     18 O          63.5676   89.9217   11.3991 O.2     1  UNL1       -0.4300
     19 O          62.2579   83.2952   15.0336 O.2     1  UNL1       -0.2747
     20 C          62.7854   82.8804   13.6921 C.2     1  UNL1        0.2267
     21 N          63.5249   83.8678   12.8389 N.am    1  UNL1       -0.2681
     22 H          63.8711   83.5955   11.9584 H       1  UNL1        0.1563
     23 C          62.5734   81.4780   13.2038 C.3     1  UNL1        0.0769
     24 C          62.7524   80.4298   12.1459 C.3     1  UNL1        0.0096
     25 C          62.0271   80.0972   13.4160 C.3     1  UNL1        0.0096
@<TRIPOS>BOND
     1    19    20    2
     2    20    21   am
     3    21     1    1
     4     1     2   ar
     5     2     3   ar
     6     3     4   ar
     7     4     7    1
     8     7     8   ar
     9     8     9   ar
    10     9    10   ar
    11    10    11   ar
    12    11    12   ar
    13    12    13    1
    14     4     5   ar
    15     5    14    1
    16    14    15   ar
    17    15    16   ar
    18    16    17   ar
    19    17    18   ar
    20     5     6   ar
    21    20    23    1
    22    23    24    1
    23    24    25    1
    24     6     1   ar
    25    25    23    1
    26    12     7   ar
    27    18    14   ar
    28    21    22    1
@<TRIPOS>MOLECULE
*****
 25 28 0 0 0
SMALL
GASTEIGER

@<TRIPOS>ATOM
      1 C          62.3815   90.6221   10.5583 C.ar    1  UNL1        0.1537
      2 C          63.5067   91.4558   10.0209 C.ar    1  UNL1        0.1332
      3 N          64.6026   91.9158   10.9359 N.ar    1  UNL1       -0.2392
      4 C          64.5734   91.5422   12.3884 C.ar    1  UNL1        0.1059
      5 C          63.4482   90.7085   12.9258 C.ar    1  UNL1        0.1537
      6 N          62.3522   90.2485   12.0108 N.ar    1  UNL1       -0.2227
      7 C          65.6694   92.0022   13.3034 C.ar    1  UNL1        0.0498
      8 C          66.2727   91.0473   14.2903 C.ar    1  UNL1        0.0245
      9 C          67.3687   91.5073   15.2053 C.ar    1  UNL1        0.0991
     10 N          67.8613   92.9223   15.1334 N.ar    1  UNL1       -0.2400
     11 C          67.2580   93.8773   14.1465 C.ar    1  UNL1        0.1285
     12 C          66.1619   93.4172   13.2314 C.ar    1  UNL1        0.1606
     13 F          65.5586   94.3721   12.2445 F       1  UNL1       -0.2025
     14 C          63.4189   90.3348   14.3782 C.ar    1  UNL1        0.2494
     15 N          63.3984   88.9400   14.9295 N.ar    1  UNL1       -0.2052
     16 C          63.3718   89.0334   16.4263 C.ar    1  UNL1        0.1427
     17 C          63.3759   90.4861   16.8002 C.ar    1  UNL1        0.2022
     18 O          63.4050   91.2904   15.5343 O.2     1  UNL1       -0.4300
     19 O          62.1007   87.7087    9.9004 O.2     1  UNL1       -0.2747
     20 C          61.1451   88.7054    9.3144 C.2     1  UNL1        0.2267
     21 N          61.2855   90.1621    9.6433 N.am    1  UNL1       -0.2681
     22 H          60.6583   90.8162    9.2587 H       1  UNL1        0.1563
     23 C          60.0491   88.2453    8.3994 C.3     1  UNL1        0.0769
     24 C          59.1153   88.5093    7.2556 C.3     1  UNL1        0.0096
     25 C          59.0846   87.1845    7.9583 C.3     1  UNL1        0.0096
@<TRIPOS>BOND
     1    19    20    2
     2    20    21   am
     3    21     1    1
     4     1     2   ar
     5     2     3   ar
     6     3     4   ar
     7     4     7    1
     8     7     8   ar
     9     8     9   ar
    10     9    10   ar
    11    10    11   ar
    12    11    12   ar
    13    12    13    1
    14     4     5   ar
    15     5    14    1
    16    14    15   ar
    17    15    16   ar
    18    16    17   ar
    19    17    18   ar
    20     5     6   ar
    21    20    23    1
    22    23    24    1
    23    24    25    1
    24     6     1   ar
    25    25    23    1
    26    12     7   ar
    27    18    14   ar
    28    21    22    1
@<TRIPOS>MOLECULE
*****
 25 28 0 0 0
SMALL
GASTEIGER

@<TRIPOS>ATOM
      1 C          62.5193   90.5381   10.9439 C.ar    1  UNL1        0.1537
      2 C          62.6581   89.8988   12.2937 C.ar    1  UNL1        0.1332
      3 N          63.7737   90.3112   13.2076 N.ar    1  UNL1       -0.2392
      4 C          64.7505   91.3629   12.7718 C.ar    1  UNL1        0.1059
      5 C          64.6117   92.0021   11.4220 C.ar    1  UNL1        0.1537
      6 N          63.4961   91.5897   10.5080 N.ar    1  UNL1       -0.2227
      7 C          65.8661   91.7752   13.6858 C.ar    1  UNL1        0.0498
      8 C          67.2651   91.8901   13.1572 C.ar    1  UNL1        0.0245
      9 C          68.3807   92.3025   14.0712 C.ar    1  UNL1        0.0991
     10 N          68.0973   92.6000   15.5139 N.ar    1  UNL1       -0.2400
     11 C          66.6983   92.4850   16.0425 C.ar    1  UNL1        0.1285
     12 C          65.5826   92.0727   15.1284 C.ar    1  UNL1        0.1606
     13 F          64.1836   91.9578   15.6571 F       1  UNL1       -0.2025
     14 C          65.5885   93.0538   10.9861 C.ar    1  UNL1        0.2494
     15 N          66.6954   92.8706    9.9906 N.ar    1  UNL1       -0.2052
     16 C          67.4209   94.1768    9.8585 C.ar    1  UNL1        0.1427
     17 C          66.7623   95.1673   10.7724 C.ar    1  UNL1        0.2022
     18 O          65.6298   94.4732   11.4693 O.2     1  UNL1       -0.4300
     19 O          62.3781   87.7195    9.9261 O.2     1  UNL1       -0.2747
     20 C          61.3331   88.7165    9.5210 C.2     1  UNL1        0.2267
     21 N          61.4037   90.1257   10.0298 N.am    1  UNL1       -0.2681
     22 H          60.7178   90.7800    9.7639 H       1  UNL1        0.1563
     23 C          60.2175   88.3041    8.6069 C.3     1  UNL1        0.0769
     24 C          59.3097   88.5993    7.4499 C.3     1  UNL1        0.0096
     25 C          59.1930   87.2947    8.1808 C.3     1  UNL1        0.0096
@<TRIPOS>BOND
     1    19    20    2
     2    20    21   am
     3    21     1    1
     4     1     2   ar
     5     2     3   ar
     6     3     4   ar
     7     4     7    1
     8     7     8   ar
     9     8     9   ar
    10     9    10   ar
    11    10    11   ar
    12    11    12   ar
    13    12    13    1
    14     4     5   ar
    15     5    14    1
    16    14    15   ar
    17    15    16   ar
    18    16    17   ar
    19    17    18   ar
    20     5     6   ar
    21    20    23    1
    22    23    24    1
    23    24    25    1
    24     6     1   ar
    25    25    23    1
    26    12     7   ar
    27    18    14   ar
    28    21    22    1
@<TRIPOS>MOLECULE
*****
 25 28 0 0 0
SMALL
GASTEIGER

@<TRIPOS>ATOM
      1 C          63.1724   85.1420   13.1695 C.ar    1  UNL1        0.1537
      2 C          64.0223   85.3985   14.3786 C.ar    1  UNL1        0.1332
      3 N          64.3689   86.8053   14.7668 N.ar    1  UNL1       -0.2392
      4 C          63.8657   87.9555   13.9461 C.ar    1  UNL1        0.1059
      5 C          63.0158   87.6990   12.7370 C.ar    1  UNL1        0.1537
      6 N          62.6691   86.2923   12.3487 N.ar    1  UNL1       -0.2227
      7 C          64.2123   89.3624   14.3344 C.ar    1  UNL1        0.0498
      8 C          65.0124   90.2224   13.4016 C.ar    1  UNL1        0.0245
      9 C          65.3591   91.6291   13.7898 C.ar    1  UNL1        0.0991
     10 N          64.9057   92.1759   15.1111 N.ar    1  UNL1       -0.2400
     11 C          64.1057   91.3159   16.0439 C.ar    1  UNL1        0.1285
     12 C          63.7590   89.9091   15.6556 C.ar    1  UNL1        0.1606
     13 F          62.9589   89.0490   16.5885 F       1  UNL1       -0.2025
     14 C          62.5125   88.8493   11.9163 C.ar    1  UNL1        0.2494
     15 N          61.2753   89.6523   12.1889 N.ar    1  UNL1       -0.2052
     16 C          61.1562   90.6978   11.1199 C.ar    1  UNL1        0.1427
     17 C          62.3200   90.5410   10.1866 C.ar    1  UNL1        0.2022
     18 O          63.1582   89.3985   10.6788 O.2     1  UNL1       -0.4300
     19 O          64.7592   83.7377   11.0458 O.2     1  UNL1       -0.2747
     20 C          63.6191   83.0331   11.7193 C.2     1  UNL1        0.2267
     21 N          62.8257   83.7352   12.7812 N.am    1  UNL1       -0.2681
     22 H          62.0774   83.2727   13.2232 H       1  UNL1        0.1563
     23 C          63.2724   81.6263   11.3310 C.3     1  UNL1        0.0769
     24 C          63.1546   80.5594   10.2832 C.3     1  UNL1        0.0096
     25 C          62.7897   80.2565   11.7062 C.3     1  UNL1        0.0096
@<TRIPOS>BOND
     1    19    20    2
     2    20    21   am
     3    21     1    1
     4     1     2   ar
     5     2     3   ar
     6     3     4   ar
     7     4     7    1
     8     7     8   ar
     9     8     9   ar
    10     9    10   ar
    11    10    11   ar
    12    11    12   ar
    13    12    13    1
    14     4     5   ar
    15     5    14    1
    16    14    15   ar
    17    15    16   ar
    18    16    17   ar
    19    17    18   ar
    20     5     6   ar
    21    20    23    1
    22    23    24    1
    23    24    25    1
    24     6     1   ar
    25    25    23    1
    26    12     7   ar
    27    18    14   ar
    28    21    22    1
@<TRIPOS>MOLECULE
*****
 25 28 0 0 0
SMALL
GASTEIGER

@<TRIPOS>ATOM
      1 C          63.6442   89.3873   13.0769 C.ar    1  UNL1        0.1537
      2 C          62.9991   90.1611   11.9656 C.ar    1  UNL1        0.1332
      3 N          62.3090   89.4356   10.8488 N.ar    1  UNL1       -0.2392
      4 C          62.2641   87.9363   10.8432 C.ar    1  UNL1        0.1059
      5 C          62.9093   87.1625   11.9545 C.ar    1  UNL1        0.1537
      6 N          63.5993   87.8880   13.0714 N.ar    1  UNL1       -0.2227
      7 C          61.5740   87.2108    9.7263 C.ar    1  UNL1        0.0498
      8 C          62.3642   86.3349    8.7998 C.ar    1  UNL1        0.0245
      9 C          61.6742   85.6094    7.6829 C.ar    1  UNL1        0.0991
     10 N          60.1939   85.7597    7.4925 N.ar    1  UNL1       -0.2400
     11 C          59.4037   86.6356    8.4190 C.ar    1  UNL1        0.1285
     12 C          60.0938   87.3612    9.5359 C.ar    1  UNL1        0.1606
     13 F          59.3036   88.2371   10.4624 F       1  UNL1       -0.2025
     14 C          62.8643   85.6632   11.9490 C.ar    1  UNL1        0.2494
     15 N          62.3019   84.7939   13.0343 N.ar    1  UNL1       -0.2052
     16 C          62.4639   83.3634   12.6132 C.ar    1  UNL1        0.1427
     17 C          63.1265   83.3485   11.2676 C.ar    1  UNL1        0.2022
     18 O          63.3740   84.7699   10.8571 O.2     1  UNL1       -0.4300
     19 O          65.5955   91.5812   12.4609 O.2     1  UNL1       -0.2747
     20 C          65.3099   91.2097   13.8858 C.2     1  UNL1        0.2267
     21 N          64.3343   90.1129   14.1939 N.am    1  UNL1       -0.2681
     22 H          64.1469   89.8691   15.1291 H       1  UNL1        0.1563
     23 C          66.0000   91.9353   15.0028 C.3     1  UNL1        0.0769
     24 C          67.2510   92.5007   15.6071 C.3     1  UNL1        0.0096
     25 C          65.9443   92.6264   16.3329 C.3     1  UNL1        0.0096
@<TRIPOS>BOND
     1    19    20    2
     2    20    21   am
     3    21     1    1
     4     1     2   ar
     5     2     3   ar
     6     3     4   ar
     7     4     7    1
     8     7     8   ar
     9     8     9   ar
    10     9    10   ar
    11    10    11   ar
    12    11    12   ar
    13    12    13    1
    14     4     5   ar
    15     5    14    1
    16    14    15   ar
    17    15    16   ar
    18    16    17   ar
    19    17    18   ar
    20     5     6   ar
    21    20    23    1
    22    23    24    1
    23    24    25    1
    24     6     1   ar
    25    25    23    1
    26    12     7   ar
    27    18    14   ar
    28    21    22    1
@<TRIPOS>MOLECULE
*****
 25 28 0 0 0
SMALL
GASTEIGER

@<TRIPOS>ATOM
      1 C          59.3598   88.2542    7.8278 C.ar    1  UNL1        0.1537
      2 C          59.5127   86.8045    7.4747 C.ar    1  UNL1        0.1332
      3 N          60.3957   85.9197    8.3039 N.ar    1  UNL1       -0.2392
      4 C          61.1257   86.4848    9.4862 C.ar    1  UNL1        0.1059
      5 C          60.9727   87.9345    9.8393 C.ar    1  UNL1        0.1537
      6 N          60.0897   88.8193    9.0102 N.ar    1  UNL1       -0.2227
      7 C          62.0087   85.5999   10.3154 C.ar    1  UNL1        0.0498
      8 C          61.8090   85.5204   11.7999 C.ar    1  UNL1        0.0245
      9 C          62.6919   84.6357   12.6291 C.ar    1  UNL1        0.0991
     10 N          63.7746   83.8304   11.9738 N.ar    1  UNL1       -0.2400
     11 C          63.9743   83.9099   10.4892 C.ar    1  UNL1        0.1285
     12 C          63.0913   84.7947    9.6600 C.ar    1  UNL1        0.1606
     13 F          63.2909   84.8742    8.1755 F       1  UNL1       -0.2025
     14 C          61.7027   88.4996   11.0216 C.ar    1  UNL1        0.2494
     15 N          61.0988   89.3258   12.1183 N.ar    1  UNL1       -0.2052
     16 C          62.1876   89.6744   13.0893 C.ar    1  UNL1        0.1427
     17 C          63.4645   89.0637   12.5928 C.ar    1  UNL1        0.2022
     18 O          63.1648   88.3376   11.3149 O.2     1  UNL1       -0.4300
     19 O          60.5760   90.1997    5.8949 O.2     1  UNL1       -0.2747
     20 C          59.0849   90.1117    6.0322 C.2     1  UNL1        0.2267
     21 N          58.4768   89.1391    6.9987 N.am    1  UNL1       -0.2681
     22 H          57.4981   89.0814    7.0888 H       1  UNL1        0.1563
     23 C          58.2019   90.9966    5.2030 C.3     1  UNL1        0.0769
     24 C          56.8344   91.4975    4.8438 C.3     1  UNL1        0.0096
     25 C          58.0400   92.0282    4.1262 C.3     1  UNL1        0.0096
@<TRIPOS>BOND
     1    19    20    2
     2    20    21   am
     3    21     1    1
     4     1     2   ar
     5     2     3   ar
     6     3     4   ar
     7     4     7    1
     8     7     8   ar
     9     8     9   ar
    10     9    10   ar
    11    10    11   ar
    12    11    12   ar
    13    12    13    1
    14     4     5   ar
    15     5    14    1
    16    14    15   ar
    17    15    16   ar
    18    16    17   ar
    19    17    18   ar
    20     5     6   ar
    21    20    23    1
    22    23    24    1
    23    24    25    1
    24     6     1   ar
    25    25    23    1
    26    12     7   ar
    27    18    14   ar
    28    21    22    1
@<TRIPOS>MOLECULE
*****
 25 28 0 0 0
SMALL
GASTEIGER

@<TRIPOS>ATOM
      1 C          62.8240   84.2823   12.3187 C.ar    1  UNL1        0.1537
      2 C          63.8061   84.6718   13.3834 C.ar    1  UNL1        0.1332
      3 N          64.0599   86.1210   13.6758 N.ar    1  UNL1       -0.2392
      4 C          63.3316   87.1806   12.9034 C.ar    1  UNL1        0.1059
      5 C          62.3495   86.7912   11.8386 C.ar    1  UNL1        0.1537
      6 N          62.0957   85.3420   11.5463 N.ar    1  UNL1       -0.2227
      7 C          63.5854   88.6299   13.1957 C.ar    1  UNL1        0.0498
      8 C          63.5817   89.6320   12.0796 C.ar    1  UNL1        0.0245
      9 C          63.8355   91.0811   12.3719 C.ar    1  UNL1        0.0991
     10 N          64.0931   91.5282   13.7804 N.ar    1  UNL1       -0.2400
     11 C          64.0968   90.5261   14.8966 C.ar    1  UNL1        0.1285
     12 C          63.8430   89.0769   14.6042 C.ar    1  UNL1        0.1606
     13 F          63.8467   88.0748   15.7203 F       1  UNL1       -0.2025
     14 C          61.6211   87.8509   11.0662 C.ar    1  UNL1        0.2494
     15 N          60.4554   88.6564   11.5584 N.ar    1  UNL1       -0.2052
     16 C          60.0444   89.5945   10.4624 C.ar    1  UNL1        0.1427
     17 C          60.9562   89.3686    9.2929 C.ar    1  UNL1        0.2022
     18 O          61.9306   88.2910    9.6661 O.2     1  UNL1       -0.4300
     19 O          64.3790   82.8923   10.1624 O.2     1  UNL1       -0.2747
     20 C          63.3477   82.1381   10.9482 C.2     1  UNL1        0.2267
     21 N          62.5702   82.8331   12.0263 N.am    1  UNL1       -0.2681
     22 H          61.8933   82.3381   12.5421 H       1  UNL1        0.1563
     23 C          63.0938   80.6889   10.6558 C.3     1  UNL1        0.0769
     24 C          63.0078   79.5573    9.6750 C.3     1  UNL1        0.0096
     25 C          62.7403   79.3105   11.1302 C.3     1  UNL1        0.0096
@<TRIPOS>BOND
     1    19    20    2
     2    20    21   am
     3    21     1    1
     4     1     2   ar
     5     2     3   ar
     6     3     4   ar
     7     4     7    1
     8     7     8   ar
     9     8     9   ar
    10     9    10   ar
    11    10    11   ar
    12    11    12   ar
    13    12    13    1
    14     4     5   ar
    15     5    14    1
    16    14    15   ar
    17    15    16   ar
    18    16    17   ar
    19    17    18   ar
    20     5     6   ar
    21    20    23    1
    22    23    24    1
    23    24    25    1
    24     6     1   ar
    25    25    23    1
    26    12     7   ar
    27    18    14   ar
    28    21    22    1
@<TRIPOS>MOLECULE
*****
 25 28 0 0 0
SMALL
GASTEIGER

@<TRIPOS>ATOM
      1 C          64.3779   87.8589   14.3120 C.ar    1  UNL1        0.1537
      2 C          64.8593   86.6261   15.0178 C.ar    1  UNL1        0.1332
      3 N          64.5115   85.2698   14.4798 N.ar    1  UNL1       -0.2392
      4 C          63.6824   85.1464   13.2359 C.ar    1  UNL1        0.1059
      5 C          63.2010   86.3792   12.5300 C.ar    1  UNL1        0.1537
      6 N          63.5487   87.7355   13.0681 N.ar    1  UNL1       -0.2227
      7 C          63.3346   83.7900   12.6978 C.ar    1  UNL1        0.0498
      8 C          63.9104   83.3314   11.3909 C.ar    1  UNL1        0.0245
      9 C          63.5627   81.9751   10.8528 C.ar    1  UNL1        0.0991
     10 N          62.6392   81.0773   11.6218 N.ar    1  UNL1       -0.2400
     11 C          62.0634   81.5359   12.9287 C.ar    1  UNL1        0.1285
     12 C          62.4111   82.8923   13.4668 C.ar    1  UNL1        0.1606
     13 F          61.8354   83.3509   14.7737 F       1  UNL1       -0.2025
     14 C          62.3719   86.2558   11.2861 C.ar    1  UNL1        0.2494
     15 N          60.9318   86.6505   11.1437 N.ar    1  UNL1       -0.2052
     16 C          60.5071   86.3547    9.7358 C.ar    1  UNL1        0.1427
     17 C          61.6848   85.7771    9.0081 C.ar    1  UNL1        0.2022
     18 O          62.8372   85.7160    9.9663 O.2     1  UNL1       -0.4300
     19 O          62.4089   89.3457   16.0187 O.2     1  UNL1       -0.2747
     20 C          63.7412   89.9586   15.7033 C.2     1  UNL1        0.2267
     21 N          64.7256   89.2153   14.8500 N.am    1  UNL1       -0.2681
     22 H          65.6000   89.6176   14.6431 H       1  UNL1        0.1563
     23 C          64.0889   91.3150   16.2414 C.3     1  UNL1        0.0769
     24 C          65.0998   92.3964   16.4834 C.3     1  UNL1        0.0096
     25 C          63.6804   92.5828   16.9311 C.3     1  UNL1        0.0096
@<TRIPOS>BOND
     1    19    20    2
     2    20    21   am
     3    21     1    1
     4     1     2   ar
     5     2     3   ar
     6     3     4   ar
     7     4     7    1
     8     7     8   ar
     9     8     9   ar
    10     9    10   ar
    11    10    11   ar
    12    11    12   ar
    13    12    13    1
    14     4     5   ar
    15     5    14    1
    16    14    15   ar
    17    15    16   ar
    18    16    17   ar
    19    17    18   ar
    20     5     6   ar
    21    20    23    1
    22    23    24    1
    23    24    25    1
    24     6     1   ar
    25    25    23    1
    26    12     7   ar
    27    18    14   ar
    28    21    22    1
