@<TRIPOS>MOLECULE
*****
 29 32 0 0 0
SMALL
GASTEIGER

@<TRIPOS>ATOM
      1 C          63.7869   89.0587   13.9310 C.3     1  UNL1        0.0282
      2 C          63.9369   89.9956   12.7691 C.3     1  UNL1        0.1189
      3 C          64.8707   91.1656   12.8646 C.ar    1  UNL1        0.1137
      4 N          65.7675   91.6465   13.9666 N.ar    1  UNL1       -0.1315
      5 N          66.4717   92.8806   13.4858 N.ar    1  UNL1       -0.0587
      6 N          66.0101   93.1623   12.0866 N.ar    1  UNL1       -0.1957
      7 C          65.0206   92.1023   11.7027 C.ar    1  UNL1        0.0823
      8 C          64.2367   91.8691   10.4453 C.3     1  UNL1        0.0688
      9 C          63.3030   90.6991   10.3498 C.3     1  UNL1        0.1004
     10 N          63.1530   89.7624   11.5116 N.am    1  UNL1       -0.2719
     11 C          62.2192   88.5923   11.4161 C.2     1  UNL1        0.2501
     12 O          62.0693   87.6555   12.5780 O.2     1  UNL1       -0.2699
     13 C          61.4353   88.3591   10.1586 C.ar    1  UNL1        0.0641
     14 C          60.5010   89.4167    9.6503 C.ar    1  UNL1        0.0054
     15 C          59.7171   89.1834    8.3928 C.ar    1  UNL1        0.0001
     16 C          59.8676   87.8926    7.6438 C.ar    1  UNL1        0.0047
     17 C          60.8020   86.8349    8.1522 C.ar    1  UNL1        0.0821
     18 C          61.5859   87.0682    9.4096 C.ar    1  UNL1        0.0659
     19 CL         62.5202   86.0106    9.9179 Cl      1  UNL1       -0.0822
     20 C          60.9525   85.5441    7.4031 C.3     1  UNL1        0.4194
     21 F          61.1030   84.2533    6.6540 F       1  UNL1       -0.1658
     22 F          59.4612   85.3852    7.3773 F       1  UNL1       -0.1658
     23 F          62.4438   85.7030    7.4289 F       1  UNL1       -0.1658
     24 C          66.4592   94.3036   11.2230 C.ar    1  UNL1        0.1843
     25 C          66.1389   95.7146   11.6186 C.ar    1  UNL1        0.1376
     26 N          66.5880   96.8559   10.7549 N.ar    1  UNL1       -0.2375
     27 C          67.3572   96.5862    9.4959 C.ar    1  UNL1        0.1196
     28 C          67.6775   95.1751    9.1003 C.ar    1  UNL1        0.1212
     29 N          67.2285   94.0338    9.9639 N.ar    1  UNL1       -0.2220
@<TRIPOS>BOND
     1     2     1    1
     2     2     3    1
     3     3     4   ar
     4     4     5   ar
     5     5     6   ar
     6     6    24    1
     7    24    25   ar
     8    25    26   ar
     9    26    27   ar
    10    27    28   ar
    11    28    29   ar
    12     6     7   ar
    13     7     8    1
    14     8     9    1
    15     9    10    1
    16    10    11   am
    17    11    12    2
    18    11    13    1
    19    13    14   ar
    20    14    15   ar
    21    15    16   ar
    22    16    17   ar
    23    17    20    1
    24    20    21    1
    25    20    22    1
    26    20    23    1
    27    17    18   ar
    28    18    19    1
    29    10     2    1
    30    18    13   ar
    31     7     3   ar
    32    29    24   ar
@<TRIPOS>MOLECULE
*****
 29 32 0 0 0
SMALL
GASTEIGER

@<TRIPOS>ATOM
      1 C          63.4238   89.6523   14.1464 C.3     1  UNL1        0.0282
      2 C          63.7170   90.3110   12.8309 C.3     1  UNL1        0.1189
      3 C          64.5112   91.5827   12.7893 C.ar    1  UNL1        0.1137
      4 N          65.1320   92.4142   13.8725 N.ar    1  UNL1       -0.1315
      5 N          65.8087   93.5867   13.2265 N.ar    1  UNL1       -0.0587
      6 N          65.6062   93.4798   11.7441 N.ar    1  UNL1       -0.1957
      7 C          64.8043   92.2413   11.4739 C.ar    1  UNL1        0.0823
      8 C          64.3032   91.6281   10.2000 C.3     1  UNL1        0.0688
      9 C          63.5089   90.3563   10.2416 C.3     1  UNL1        0.1004
     10 N          63.2158   89.6978   11.5569 N.am    1  UNL1       -0.2719
     11 C          62.4215   88.4260   11.5985 C.2     1  UNL1        0.2501
     12 O          62.1284   87.7674   12.9139 O.2     1  UNL1       -0.2699
     13 C          61.9203   87.8127   10.3246 C.ar    1  UNL1        0.0641
     14 C          62.5184   86.5320    9.8227 C.ar    1  UNL1        0.0054
     15 C          62.0172   85.9188    8.5488 C.ar    1  UNL1        0.0001
     16 C          60.9180   86.5863    7.7768 C.ar    1  UNL1        0.0047
     17 C          60.3198   87.8672    8.2788 C.ar    1  UNL1        0.0821
     18 C          60.8210   88.4804    9.5527 C.ar    1  UNL1        0.0659
     19 CL         60.2228   89.7611   10.0546 Cl      1  UNL1       -0.0822
     20 C          59.2205   88.5347    7.5068 C.3     1  UNL1        0.4194
     21 F          58.1212   89.2022    6.7349 F       1  UNL1       -0.1658
     22 F          60.1407   89.6737    7.1814 F       1  UNL1       -0.1658
     23 F          58.3003   87.3956    7.8322 F       1  UNL1       -0.1658
     24 C          66.1161   94.4425   10.7129 C.ar    1  UNL1        0.1843
     25 C          65.7423   95.8930   10.7913 C.ar    1  UNL1        0.1376
     26 N          66.2522   96.8557    9.7601 N.ar    1  UNL1       -0.2375
     27 C          67.1359   96.3679    8.6507 C.ar    1  UNL1        0.1196
     28 C          67.5097   94.9173    8.5723 C.ar    1  UNL1        0.1212
     29 N          66.9999   93.9546    9.6034 N.ar    1  UNL1       -0.2220
@<TRIPOS>BOND
     1     2     1    1
     2     2     3    1
     3     3     4   ar
     4     4     5   ar
     5     5     6   ar
     6     6    24    1
     7    24    25   ar
     8    25    26   ar
     9    26    27   ar
    10    27    28   ar
    11    28    29   ar
    12     6     7   ar
    13     7     8    1
    14     8     9    1
    15     9    10    1
    16    10    11   am
    17    11    12    2
    18    11    13    1
    19    13    14   ar
    20    14    15   ar
    21    15    16   ar
    22    16    17   ar
    23    17    20    1
    24    20    21    1
    25    20    22    1
    26    20    23    1
    27    17    18   ar
    28    18    19    1
    29    10     2    1
    30    18    13   ar
    31     7     3   ar
    32    29    24   ar
@<TRIPOS>MOLECULE
*****
 29 32 0 0 0
SMALL
GASTEIGER

@<TRIPOS>ATOM
      1 C          63.3328   89.4997   17.0093 C.3     1  UNL1        0.0282
      2 C          63.4168   88.5618   15.8417 C.3     1  UNL1        0.1189
      3 C          63.2964   87.0824   16.0577 C.ar    1  UNL1        0.1137
      4 N          63.0921   86.2624   17.2971 N.ar    1  UNL1       -0.1315
      5 N          63.0499   84.8179   16.8953 N.ar    1  UNL1       -0.0587
      6 N          63.2280   84.7450   15.4077 N.ar    1  UNL1       -0.1957
      7 C          63.3804   86.1446   14.8900 C.ar    1  UNL1        0.0823
      8 C          63.5849   86.6863   13.5063 C.3     1  UNL1        0.0688
      9 C          63.7053   88.1657   13.2902 C.3     1  UNL1        0.1004
     10 N          63.6213   89.1035   14.4578 N.am    1  UNL1       -0.2719
     11 C          63.7417   90.5830   14.2417 C.2     1  UNL1        0.2501
     12 O          63.6577   91.5208   15.4094 O.2     1  UNL1       -0.2699
     13 C          63.9461   91.1247   12.8580 C.ar    1  UNL1        0.0641
     14 C          62.9702   90.7890   11.7694 C.ar    1  UNL1        0.0054
     15 C          63.1747   91.3307   10.3856 C.ar    1  UNL1        0.0001
     16 C          64.3549   92.2080   10.0905 C.ar    1  UNL1        0.0047
     17 C          65.3309   92.5437   11.1791 C.ar    1  UNL1        0.0821
     18 C          65.1265   92.0020   12.5628 C.ar    1  UNL1        0.0659
     19 CL         66.1023   92.3377   13.6514 Cl      1  UNL1       -0.0822
     20 C          66.5112   93.4210   10.8839 C.3     1  UNL1        0.4194
     21 F          67.6915   94.2984   10.5886 F       1  UNL1       -0.1658
     22 F          65.7282   94.6224   11.3240 F       1  UNL1       -0.1658
     23 F          67.2941   92.2197   10.4437 F       1  UNL1       -0.1658
     24 C          63.2500   83.4925   14.5826 C.ar    1  UNL1        0.1843
     25 C          64.3551   83.2648   13.5943 C.ar    1  UNL1        0.1376
     26 N          64.3771   82.0122   12.7692 N.ar    1  UNL1       -0.2375
     27 C          63.2940   80.9875   12.9325 C.ar    1  UNL1        0.1196
     28 C          62.1888   81.2153   13.9209 C.ar    1  UNL1        0.1212
     29 N          62.1668   82.4677   14.7459 N.ar    1  UNL1       -0.2220
@<TRIPOS>BOND
     1     2     1    1
     2     2     3    1
     3     3     4   ar
     4     4     5   ar
     5     5     6   ar
     6     6    24    1
     7    24    25   ar
     8    25    26   ar
     9    26    27   ar
    10    27    28   ar
    11    28    29   ar
    12     6     7   ar
    13     7     8    1
    14     8     9    1
    15     9    10    1
    16    10    11   am
    17    11    12    2
    18    11    13    1
    19    13    14   ar
    20    14    15   ar
    21    15    16   ar
    22    16    17   ar
    23    17    20    1
    24    20    21    1
    25    20    22    1
    26    20    23    1
    27    17    18   ar
    28    18    19    1
    29    10     2    1
    30    18    13   ar
    31     7     3   ar
    32    29    24   ar
@<TRIPOS>MOLECULE
*****
 29 32 0 0 0
SMALL
GASTEIGER

@<TRIPOS>ATOM
      1 C          62.4806   87.3149   17.7423 C.3     1  UNL1        0.0282
      2 C          63.1819   87.7549   16.4914 C.3     1  UNL1        0.1189
      3 C          63.4846   89.2077   16.2726 C.ar    1  UNL1        0.1137
      4 N          63.2152   90.4256   17.1058 N.ar    1  UNL1       -0.1315
      5 N          63.7500   91.6182   16.3699 N.ar    1  UNL1       -0.0587
      6 N          64.3499   91.1374   15.0818 N.ar    1  UNL1       -0.1957
      7 C          64.1858   89.6476   15.0217 C.ar    1  UNL1        0.0823
      8 C          64.5844   88.6348   13.9896 C.3     1  UNL1        0.0688
      9 C          64.2817   87.1820   14.2084 C.3     1  UNL1        0.1004
     10 N          63.5805   86.7421   15.4592 N.am    1  UNL1       -0.2719
     11 C          63.2778   85.2893   15.6780 C.2     1  UNL1        0.2501
     12 O          62.5765   84.8494   16.9289 O.2     1  UNL1       -0.2699
     13 C          63.6763   84.2764   14.6458 C.ar    1  UNL1        0.0641
     14 C          64.8827   84.5155   13.7871 C.ar    1  UNL1        0.0054
     15 C          65.2813   83.5026   12.7550 C.ar    1  UNL1        0.0001
     16 C          64.4734   82.2508   12.5816 C.ar    1  UNL1        0.0047
     17 C          63.2669   82.0117   13.4403 C.ar    1  UNL1        0.0821
     18 C          62.8684   83.0245   14.4725 C.ar    1  UNL1        0.0659
     19 CL         61.6620   82.7854   15.3312 Cl      1  UNL1       -0.0822
     20 C          62.4591   80.7598   13.2669 C.3     1  UNL1        0.4194
     21 F          61.6512   79.5078   13.0935 F       1  UNL1       -0.1658
     22 F          61.5522   81.4773   12.3116 F       1  UNL1       -0.1658
     23 F          63.3660   80.0422   14.2222 F       1  UNL1       -0.1658
     24 C          64.9997   91.9957   14.0373 C.ar    1  UNL1        0.1843
     25 C          66.1363   92.9004   14.4108 C.ar    1  UNL1        0.1376
     26 N          66.7862   93.7588   13.3663 N.ar    1  UNL1       -0.2375
     27 C          66.2994   93.7124   11.9483 C.ar    1  UNL1        0.1196
     28 C          65.1627   92.8076   11.5748 C.ar    1  UNL1        0.1212
     29 N          64.5128   91.9493   12.6192 N.ar    1  UNL1       -0.2220
@<TRIPOS>BOND
     1     2     1    1
     2     2     3    1
     3     3     4   ar
     4     4     5   ar
     5     5     6   ar
     6     6    24    1
     7    24    25   ar
     8    25    26   ar
     9    26    27   ar
    10    27    28   ar
    11    28    29   ar
    12     6     7   ar
    13     7     8    1
    14     8     9    1
    15     9    10    1
    16    10    11   am
    17    11    12    2
    18    11    13    1
    19    13    14   ar
    20    14    15   ar
    21    15    16   ar
    22    16    17   ar
    23    17    20    1
    24    20    21    1
    25    20    22    1
    26    20    23    1
    27    17    18   ar
    28    18    19    1
    29    10     2    1
    30    18    13   ar
    31     7     3   ar
    32    29    24   ar
@<TRIPOS>MOLECULE
*****
 29 32 0 0 0
SMALL
GASTEIGER

@<TRIPOS>ATOM
      1 C          61.7750   88.1969   10.0560 C.3     1  UNL1        0.0282
      2 C          62.6187   88.3899   11.2812 C.3     1  UNL1        0.1189
      3 C          63.2628   89.7183   11.5467 C.ar    1  UNL1        0.1137
      4 N          63.2462   91.0115   10.7869 N.ar    1  UNL1       -0.1315
      5 N          64.0796   92.0037   11.5425 N.ar    1  UNL1       -0.0587
      6 N          64.6112   91.3238   12.7693 N.ar    1  UNL1       -0.1957
      7 C          64.1064   89.9113   12.7719 C.ar    1  UNL1        0.0823
      8 C          64.3059   88.7758   13.7316 C.3     1  UNL1        0.0688
      9 C          63.6618   87.4475   13.4661 C.3     1  UNL1        0.1004
     10 N          62.8182   87.2545   12.2410 N.am    1  UNL1       -0.2719
     11 C          62.1741   85.9260   11.9755 C.2     1  UNL1        0.2501
     12 O          61.3305   85.7330   10.7503 O.2     1  UNL1       -0.2699
     13 C          62.3736   84.7906   12.9351 C.ar    1  UNL1        0.0641
     14 C          62.4194   85.0552   14.4109 C.ar    1  UNL1        0.0054
     15 C          62.6190   83.9197   15.3706 C.ar    1  UNL1        0.0001
     16 C          62.7726   82.5198   14.8545 C.ar    1  UNL1        0.0047
     17 C          62.7267   82.2552   13.3787 C.ar    1  UNL1        0.0821
     18 C          62.5272   83.3906   12.4190 C.ar    1  UNL1        0.0659
     19 CL         62.4814   83.1259   10.9432 Cl      1  UNL1       -0.0822
     20 C          62.8804   80.8551   12.8626 C.3     1  UNL1        0.4194
     21 F          63.0340   79.4551   12.3466 F       1  UNL1       -0.1658
     22 F          61.4548   80.5642   13.2275 F       1  UNL1       -0.1658
     23 F          64.3060   81.1461   12.4977 F       1  UNL1       -0.1658
     24 C          65.4929   91.9469   13.8106 C.ar    1  UNL1        0.1843
     25 C          66.8066   92.5536   13.4156 C.ar    1  UNL1        0.1376
     26 N          67.6883   93.1768   14.4569 N.ar    1  UNL1       -0.2375
     27 C          67.2563   93.1932   15.8932 C.ar    1  UNL1        0.1196
     28 C          65.9425   92.5865   16.2882 C.ar    1  UNL1        0.1212
     29 N          65.0608   91.9633   15.2470 N.ar    1  UNL1       -0.2220
@<TRIPOS>BOND
     1     2     1    1
     2     2     3    1
     3     3     4   ar
     4     4     5   ar
     5     5     6   ar
     6     6    24    1
     7    24    25   ar
     8    25    26   ar
     9    26    27   ar
    10    27    28   ar
    11    28    29   ar
    12     6     7   ar
    13     7     8    1
    14     8     9    1
    15     9    10    1
    16    10    11   am
    17    11    12    2
    18    11    13    1
    19    13    14   ar
    20    14    15   ar
    21    15    16   ar
    22    16    17   ar
    23    17    20    1
    24    20    21    1
    25    20    22    1
    26    20    23    1
    27    17    18   ar
    28    18    19    1
    29    10     2    1
    30    18    13   ar
    31     7     3   ar
    32    29    24   ar
@<TRIPOS>MOLECULE
*****
 29 32 0 0 0
SMALL
GASTEIGER

@<TRIPOS>ATOM
      1 C          62.3585   87.2636   17.6696 C.3     1  UNL1        0.0282
      2 C          63.0925   87.7089   16.4395 C.3     1  UNL1        0.1189
      3 C          63.4369   89.1571   16.2546 C.ar    1  UNL1        0.1137
      4 N          63.1852   90.3654   17.1071 N.ar    1  UNL1       -0.1315
      5 N          63.7637   91.5574   16.4039 N.ar    1  UNL1       -0.0587
      6 N          64.3728   91.0858   15.1168 N.ar    1  UNL1       -0.1957
      7 C          64.1709   89.6023   15.0245 C.ar    1  UNL1        0.0823
      8 C          64.5605   88.5994   13.9794 C.3     1  UNL1        0.0688
      9 C          64.2161   87.1512   14.1644 C.3     1  UNL1        0.1004
     10 N          63.4822   86.7060   15.3943 N.am    1  UNL1       -0.2719
     11 C          63.1378   85.2577   15.5793 C.2     1  UNL1        0.2501
     12 O          62.4038   84.8125   16.8093 O.2     1  UNL1       -0.2699
     13 C          63.5274   84.2548   14.5342 C.ar    1  UNL1        0.0641
     14 C          64.1517   82.9527   14.9400 C.ar    1  UNL1        0.0054
     15 C          64.5413   81.9498   13.8948 C.ar    1  UNL1        0.0001
     16 C          64.3066   82.2489   12.4439 C.ar    1  UNL1        0.0047
     17 C          63.6822   83.5511   12.0380 C.ar    1  UNL1        0.0821
     18 C          63.2926   84.5540   13.0831 C.ar    1  UNL1        0.0659
     19 CL         62.6683   85.8561   12.6772 Cl      1  UNL1       -0.0822
     20 C          63.4475   83.8502   10.5870 C.3     1  UNL1        0.4194
     21 F          63.2128   84.1494    9.1360 F       1  UNL1       -0.1658
     22 F          64.8786   83.5160   10.2866 F       1  UNL1       -0.1658
     23 F          62.0164   84.1845   10.8874 F       1  UNL1       -0.1658
     24 C          65.0628   91.9466   14.1004 C.ar    1  UNL1        0.1843
     25 C          66.2177   92.8115   14.5102 C.ar    1  UNL1        0.1376
     26 N          66.9078   93.6724   13.4939 N.ar    1  UNL1       -0.2375
     27 C          66.4429   93.6682   12.0678 C.ar    1  UNL1        0.1196
     28 C          65.2879   92.8031   11.6581 C.ar    1  UNL1        0.1212
     29 N          64.5979   91.9424   12.6743 N.ar    1  UNL1       -0.2220
@<TRIPOS>BOND
     1     2     1    1
     2     2     3    1
     3     3     4   ar
     4     4     5   ar
     5     5     6   ar
     6     6    24    1
     7    24    25   ar
     8    25    26   ar
     9    26    27   ar
    10    27    28   ar
    11    28    29   ar
    12     6     7   ar
    13     7     8    1
    14     8     9    1
    15     9    10    1
    16    10    11   am
    17    11    12    2
    18    11    13    1
    19    13    14   ar
    20    14    15   ar
    21    15    16   ar
    22    16    17   ar
    23    17    20    1
    24    20    21    1
    25    20    22    1
    26    20    23    1
    27    17    18   ar
    28    18    19    1
    29    10     2    1
    30    18    13   ar
    31     7     3   ar
    32    29    24   ar
@<TRIPOS>MOLECULE
*****
 29 32 0 0 0
SMALL
GASTEIGER

@<TRIPOS>ATOM
      1 C          65.4551   90.7622   14.5862 C.3     1  UNL1        0.0282
      2 C          64.7758   90.8434   13.2512 C.3     1  UNL1        0.1189
      3 C          63.8478   89.7490   12.8139 C.ar    1  UNL1        0.1137
      4 N          63.4116   88.4775   13.4794 N.ar    1  UNL1       -0.1315
      5 N          62.4627   87.7729   12.5556 N.ar    1  UNL1       -0.0587
      6 N          62.3126   88.6090   11.3193 N.ar    1  UNL1       -0.1957
      7 C          63.1687   89.8303   11.4790 C.ar    1  UNL1        0.0823
      8 C          63.4175   91.0060   10.5813 C.3     1  UNL1        0.0688
      9 C          64.3455   92.1004   11.0185 C.3     1  UNL1        0.1004
     10 N          65.0246   92.0191   12.3534 N.am    1  UNL1       -0.2719
     11 C          65.9527   93.1135   12.7906 C.2     1  UNL1        0.2501
     12 O          66.6318   93.0322   14.1256 O.2     1  UNL1       -0.2699
     13 C          66.2015   94.2892   11.8929 C.ar    1  UNL1        0.0641
     14 C          65.9224   95.6792   12.3828 C.ar    1  UNL1        0.0054
     15 C          66.1713   96.8548   11.4850 C.ar    1  UNL1        0.0001
     16 C          66.6991   96.6405   10.0975 C.ar    1  UNL1        0.0047
     17 C          66.9782   95.2504    9.6076 C.ar    1  UNL1        0.0821
     18 C          66.7294   94.0747   10.5053 C.ar    1  UNL1        0.0659
     19 CL         67.0084   92.6847   10.0154 Cl      1  UNL1       -0.0822
     20 C          67.5061   95.0360    8.2200 C.3     1  UNL1        0.4194
     21 F          68.0339   94.8217    6.8324 F       1  UNL1       -0.1658
     22 F          66.2898   95.7068    7.6537 F       1  UNL1       -0.1658
     23 F          68.7223   94.3653    8.7863 F       1  UNL1       -0.1658
     24 C          61.4567   88.2813   10.1319 C.ar    1  UNL1        0.1843
     25 C          61.3753   86.8690    9.6330 C.ar    1  UNL1        0.1376
     26 N          60.5194   86.5412    8.4455 N.ar    1  UNL1       -0.2375
     27 C          59.7449   87.6257    7.7570 C.ar    1  UNL1        0.1196
     28 C          59.8263   89.0380    8.2560 C.ar    1  UNL1        0.1212
     29 N          60.6821   89.3658    9.4434 N.ar    1  UNL1       -0.2220
@<TRIPOS>BOND
     1     2     1    1
     2     2     3    1
     3     3     4   ar
     4     4     5   ar
     5     5     6   ar
     6     6    24    1
     7    24    25   ar
     8    25    26   ar
     9    26    27   ar
    10    27    28   ar
    11    28    29   ar
    12     6     7   ar
    13     7     8    1
    14     8     9    1
    15     9    10    1
    16    10    11   am
    17    11    12    2
    18    11    13    1
    19    13    14   ar
    20    14    15   ar
    21    15    16   ar
    22    16    17   ar
    23    17    20    1
    24    20    21    1
    25    20    22    1
    26    20    23    1
    27    17    18   ar
    28    18    19    1
    29    10     2    1
    30    18    13   ar
    31     7     3   ar
    32    29    24   ar
@<TRIPOS>MOLECULE
*****
 29 32 0 0 0
SMALL
GASTEIGER

@<TRIPOS>ATOM
      1 C          73.6044   81.4399   12.3286 C.3     1  UNL1        0.0282
      2 C          73.0473   80.0562   12.1699 C.3     1  UNL1        0.1189
      3 C          72.7550   79.2218   13.3816 C.ar    1  UNL1        0.1137
      4 N          72.9120   79.4928   14.8486 N.ar    1  UNL1       -0.1315
      5 N          72.4520   78.2767   15.5964 N.ar    1  UNL1       -0.0587
      6 N          72.0107   77.2540   14.5917 N.ar    1  UNL1       -0.1957
      7 C          72.1980   77.8382   13.2229 C.ar    1  UNL1        0.0823
      8 C          71.9333   77.2889   11.8524 C.3     1  UNL1        0.0688
      9 C          72.2256   78.1233   10.6407 C.3     1  UNL1        0.1004
     10 N          72.7826   79.5069   10.7994 N.am    1  UNL1       -0.2719
     11 C          73.0750   80.3414    9.5876 C.2     1  UNL1        0.2501
     12 O          73.6320   81.7251    9.7464 O.2     1  UNL1       -0.2699
     13 C          72.8103   79.7922    8.2171 C.ar    1  UNL1        0.0641
     14 C          73.6225   78.6418    7.7004 C.ar    1  UNL1        0.0054
     15 C          73.3577   78.0926    6.3299 C.ar    1  UNL1        0.0001
     16 C          72.2809   78.6937    5.4761 C.ar    1  UNL1        0.0047
     17 C          71.4686   79.8441    5.9929 C.ar    1  UNL1        0.0821
     18 C          71.7333   80.3934    7.3634 C.ar    1  UNL1        0.0659
     19 CL         70.9211   81.5437    7.8801 Cl      1  UNL1       -0.0822
     20 C          70.3918   80.4453    5.1391 C.3     1  UNL1        0.4194
     21 F          69.3149   81.0464    4.2853 F       1  UNL1       -0.1658
     22 F          71.2048   81.6976    4.9953 F       1  UNL1       -0.1658
     23 F          69.5787   79.1929    5.2829 F       1  UNL1       -0.1658
     24 C          71.4760   75.8872   14.9014 C.ar    1  UNL1        0.1843
     25 C          70.0196   75.7039   15.2104 C.ar    1  UNL1        0.1376
     26 N          69.4849   74.3370   15.5201 N.ar    1  UNL1       -0.2375
     27 C          70.4065   73.1536   15.5209 C.ar    1  UNL1        0.1196
     28 C          71.8629   73.3370   15.2120 C.ar    1  UNL1        0.1212
     29 N          72.3976   74.7037   14.9022 N.ar    1  UNL1       -0.2220
@<TRIPOS>BOND
     1     2     1    1
     2     2     3    1
     3     3     4   ar
     4     4     5   ar
     5     5     6   ar
     6     6    24    1
     7    24    25   ar
     8    25    26   ar
     9    26    27   ar
    10    27    28   ar
    11    28    29   ar
    12     6     7   ar
    13     7     8    1
    14     8     9    1
    15     9    10    1
    16    10    11   am
    17    11    12    2
    18    11    13    1
    19    13    14   ar
    20    14    15   ar
    21    15    16   ar
    22    16    17   ar
    23    17    20    1
    24    20    21    1
    25    20    22    1
    26    20    23    1
    27    17    18   ar
    28    18    19    1
    29    10     2    1
    30    18    13   ar
    31     7     3   ar
    32    29    24   ar
@<TRIPOS>MOLECULE
*****
 29 32 0 0 0
SMALL
GASTEIGER

@<TRIPOS>ATOM
      1 C          61.7553   86.7335   11.5604 C.3     1  UNL1        0.0282
      2 C          61.6166   87.9593   10.7070 C.3     1  UNL1        0.1189
      3 C          60.6734   87.9585    9.5406 C.ar    1  UNL1        0.1137
      4 N          59.7567   86.9056    8.9920 N.ar    1  UNL1       -0.1315
      5 N          59.0514   87.4808    7.7996 N.ar    1  UNL1       -0.0587
      6 N          59.5323   88.8891    7.6113 N.ar    1  UNL1       -0.1957
      7 C          60.5348   89.1843    8.6873 C.ar    1  UNL1        0.0823
      8 C          61.3393   90.4110    9.0004 C.3     1  UNL1        0.0688
      9 C          62.2824   90.4118   10.1667 C.3     1  UNL1        0.1004
     10 N          62.4211   89.1861   11.0200 N.am    1  UNL1       -0.2719
     11 C          63.3643   89.1870   12.1864 C.2     1  UNL1        0.2501
     12 O          63.5030   87.9611   13.0397 O.2     1  UNL1       -0.2699
     13 C          64.1688   90.4137   12.4995 C.ar    1  UNL1        0.0641
     14 C          64.3340   91.4866   11.4644 C.ar    1  UNL1        0.0054
     15 C          65.1386   92.7133   11.7775 C.ar    1  UNL1        0.0001
     16 C          65.7778   92.8670   13.1256 C.ar    1  UNL1        0.0047
     17 C          65.6126   91.7940   14.1608 C.ar    1  UNL1        0.0821
     18 C          64.8081   90.5673   13.8478 C.ar    1  UNL1        0.0659
     19 CL         64.6429   89.4944   14.8829 Cl      1  UNL1       -0.0822
     20 C          66.2519   91.9478   15.5090 C.3     1  UNL1        0.4194
     21 F          66.8912   92.1016   16.8572 F       1  UNL1       -0.1658
     22 F          67.5348   91.3936   14.9639 F       1  UNL1       -0.1658
     23 F          64.9691   92.5020   16.0541 F       1  UNL1       -0.1658
     24 C          59.0886   89.8358    6.5358 C.ar    1  UNL1        0.1843
     25 C          57.6259   90.0638    6.2939 C.ar    1  UNL1        0.1376
     26 N          57.1821   91.0106    5.2184 N.ar    1  UNL1       -0.2375
     27 C          58.2010   91.7294    4.3848 C.ar    1  UNL1        0.1196
     28 C          59.6638   91.5014    4.6267 C.ar    1  UNL1        0.1212
     29 N          60.1076   90.5547    5.7021 N.ar    1  UNL1       -0.2220
@<TRIPOS>BOND
     1     2     1    1
     2     2     3    1
     3     3     4   ar
     4     4     5   ar
     5     5     6   ar
     6     6    24    1
     7    24    25   ar
     8    25    26   ar
     9    26    27   ar
    10    27    28   ar
    11    28    29   ar
    12     6     7   ar
    13     7     8    1
    14     8     9    1
    15     9    10    1
    16    10    11   am
    17    11    12    2
    18    11    13    1
    19    13    14   ar
    20    14    15   ar
    21    15    16   ar
    22    16    17   ar
    23    17    20    1
    24    20    21    1
    25    20    22    1
    26    20    23    1
    27    17    18   ar
    28    18    19    1
    29    10     2    1
    30    18    13   ar
    31     7     3   ar
    32    29    24   ar
