@<TRIPOS>MOLECULE
*****
 20 22 0 0 0
SMALL
GASTEIGER

@<TRIPOS>ATOM
      1 N          66.7662   94.1573   12.2506 N.pl3   1  UNL1       -0.3375
      2 C          65.7159   93.1020   12.0688 C.ar    1  UNL1        0.1567
      3 N          65.1749   92.2026   13.1404 N.ar    1  UNL1       -0.2245
      4 C          64.1467   91.3055   12.5174 C.ar    1  UNL1        0.0893
      5 C          63.2843   90.2191   13.0883 C.ar    1  UNL1        0.0202
      6 C          62.3275   89.4777   12.2025 C.ar    1  UNL1        0.0077
      7 C          62.2331   89.8226   10.7458 C.ar    1  UNL1        0.0261
      8 C          63.0955   90.9090   10.1748 C.ar    1  UNL1        0.0142
      9 C          64.0523   91.6504   11.0606 C.ar    1  UNL1        0.0502
     10 S          65.0221   92.7607   10.7834 S.2     1  UNL1       -0.0520
     11 H          67.1646   94.3076   13.1382 H       1  UNL1        0.1442
     12 H          67.0573   94.6997   11.4822 H       1  UNL1        0.1442
     13 S          61.2762   89.0811    9.8600 S.3     1  UNL1       -0.1088
     14 C          60.7733   87.7276   10.2662 C.3     1  UNL1        0.0884
     15 C          61.6624   86.5266   10.1348 C.ar    1  UNL1       -0.0110
     16 C          61.9264   85.6549   11.3266 C.ar    1  UNL1       -0.0034
     17 C          62.8155   84.4540   11.1952 C.ar    1  UNL1       -0.0003
     18 C          63.4406   84.1248    9.8720 C.ar    1  UNL1       -0.0000
     19 C          63.1767   84.9966    8.6802 C.ar    1  UNL1       -0.0003
     20 C          62.2876   86.1975    8.8116 C.ar    1  UNL1       -0.0034
@<TRIPOS>BOND
     1     1     2    1
     2     2     3   ar
     3     3     4   ar
     4     4     5   ar
     5     5     6   ar
     6     6     7   ar
     7     7    13    1
     8    13    14    1
     9    14    15    1
    10    15    16   ar
    11    16    17   ar
    12    17    18   ar
    13    18    19   ar
    14    19    20   ar
    15     7     8   ar
    16     8     9   ar
    17     9    10   ar
    18    10     2   ar
    19     9     4   ar
    20    20    15   ar
    21     1    11    1
    22     1    12    1
@<TRIPOS>MOLECULE
*****
 20 22 0 0 0
SMALL
GASTEIGER

@<TRIPOS>ATOM
      1 N          68.3917   93.1259   14.8788 N.pl3   1  UNL1       -0.3375
      2 C          67.2504   92.6768   14.0152 C.ar    1  UNL1        0.1567
      3 N          67.0294   93.0532   12.5801 N.ar    1  UNL1       -0.2245
      4 C          65.7721   92.3815   12.1130 C.ar    1  UNL1        0.0893
      5 C          65.0617   92.3884   10.7920 C.ar    1  UNL1        0.0202
      6 C          63.7954   91.6037   10.6173 C.ar    1  UNL1        0.0077
      7 C          63.2394   90.8121   11.7637 C.ar    1  UNL1        0.0261
      8 C          63.9497   90.8053   13.0848 C.ar    1  UNL1        0.0142
      9 C          65.2161   91.5899   13.2595 C.ar    1  UNL1        0.0502
     10 S          66.1298   91.7724   14.4350 S.2     1  UNL1       -0.0520
     11 H          69.0823   93.7232   14.5105 H       1  UNL1        0.1442
     12 H          68.4502   92.8233   15.8138 H       1  UNL1        0.1442
     13 S          61.9729   90.0274   11.5890 S.3     1  UNL1       -0.1088
     14 C          61.2622   90.0349   10.2682 C.3     1  UNL1        0.0884
     15 C          61.0540   88.7509    9.5212 C.ar    1  UNL1       -0.0110
     16 C          61.9997   87.6041    9.7227 C.ar    1  UNL1       -0.0034
     17 C          61.7914   86.3202    8.9757 C.ar    1  UNL1       -0.0003
     18 C          60.6375   86.1829    8.0272 C.ar    1  UNL1       -0.0000
     19 C          59.6919   87.3297    7.8257 C.ar    1  UNL1       -0.0003
     20 C          59.9001   88.6136    8.5727 C.ar    1  UNL1       -0.0034
@<TRIPOS>BOND
     1     1     2    1
     2     2     3   ar
     3     3     4   ar
     4     4     5   ar
     5     5     6   ar
     6     6     7   ar
     7     7    13    1
     8    13    14    1
     9    14    15    1
    10    15    16   ar
    11    16    17   ar
    12    17    18   ar
    13    18    19   ar
    14    19    20   ar
    15     7     8   ar
    16     8     9   ar
    17     9    10   ar
    18    10     2   ar
    19     9     4   ar
    20    20    15   ar
    21     1    11    1
    22     1    12    1
@<TRIPOS>MOLECULE
*****
 20 22 0 0 0
SMALL
GASTEIGER

@<TRIPOS>ATOM
      1 N          66.6329   92.1054   15.3353 N.pl3   1  UNL1       -0.3375
      2 C          65.7064   91.7157   14.2219 C.ar    1  UNL1        0.1567
      3 N          65.6228   92.3699   12.8746 N.ar    1  UNL1       -0.2245
      4 C          64.5655   91.6620   12.0803 C.ar    1  UNL1        0.0893
      5 C          64.0480   91.8704   10.6879 C.ar    1  UNL1        0.0202
      6 C          62.9607   90.9871   10.1519 C.ar    1  UNL1        0.0077
      7 C          62.3908   89.8953   11.0082 C.ar    1  UNL1        0.0261
      8 C          62.9083   89.6869   12.4006 C.ar    1  UNL1        0.0142
      9 C          63.9956   90.5702   12.9366 C.ar    1  UNL1        0.0502
     10 S          64.7007   90.6035   14.2602 S.2     1  UNL1       -0.0520
     11 H          67.2609   92.8538   15.2139 H       1  UNL1        0.1442
     12 H          66.6131   91.6127   16.1874 H       1  UNL1        0.1442
     13 S          61.3034   89.0120   10.4721 S.3     1  UNL1       -0.1088
     14 C          61.0864   87.6490   11.0596 C.3     1  UNL1        0.0884
     15 C          61.8781   86.4795   10.5539 C.ar    1  UNL1       -0.0110
     16 C          62.2560   86.4000    9.1045 C.ar    1  UNL1       -0.0034
     17 C          63.0477   85.2306    8.5989 C.ar    1  UNL1       -0.0003
     18 C          63.4615   84.1407    9.5427 C.ar    1  UNL1       -0.0000
     19 C          63.0837   84.2202   10.9922 C.ar    1  UNL1       -0.0003
     20 C          62.2920   85.3896   11.4977 C.ar    1  UNL1       -0.0034
@<TRIPOS>BOND
     1     1     2    1
     2     2     3   ar
     3     3     4   ar
     4     4     5   ar
     5     5     6   ar
     6     6     7   ar
     7     7    13    1
     8    13    14    1
     9    14    15    1
    10    15    16   ar
    11    16    17   ar
    12    17    18   ar
    13    18    19   ar
    14    19    20   ar
    15     7     8   ar
    16     8     9   ar
    17     9    10   ar
    18    10     2   ar
    19     9     4   ar
    20    20    15   ar
    21     1    11    1
    22     1    12    1
@<TRIPOS>MOLECULE
*****
 20 22 0 0 0
SMALL
GASTEIGER

@<TRIPOS>ATOM
      1 N          58.6727   88.9587    6.6853 N.pl3   1  UNL1       -0.3375
      2 C          59.5585   88.5182    7.8128 C.ar    1  UNL1        0.1567
      3 N          60.4420   89.4057    8.6384 N.ar    1  UNL1       -0.2245
      4 C          61.1459   88.5488    9.6485 C.ar    1  UNL1        0.0893
      5 C          62.1373   88.8758   10.7256 C.ar    1  UNL1        0.0202
      6 C          62.6801   87.7857   11.6014 C.ar    1  UNL1        0.0077
      7 C          62.2316   86.3686   11.4000 C.ar    1  UNL1        0.0261
      8 C          61.2402   86.0415   10.3229 C.ar    1  UNL1        0.0142
      9 C          60.6974   87.1316    9.4472 C.ar    1  UNL1        0.0502
     10 S          59.7163   87.1127    8.3127 S.2     1  UNL1       -0.0520
     11 H          58.6369   89.9088    6.4298 H       1  UNL1        0.1442
     12 H          58.1270   88.2978    6.2009 H       1  UNL1        0.1442
     13 S          62.7745   85.2785   12.2758 S.3     1  UNL1       -0.1088
     14 C          63.2574   83.9964   11.6652 C.3     1  UNL1        0.0884
     15 C          62.8747   82.6823   12.2791 C.ar    1  UNL1       -0.0110
     16 C          62.2974   82.6408   13.6629 C.ar    1  UNL1       -0.0034
     17 C          61.9147   81.3268   14.2767 C.ar    1  UNL1       -0.0003
     18 C          62.1092   80.0543   13.5067 C.ar    1  UNL1       -0.0000
     19 C          62.6865   80.0958   12.1229 C.ar    1  UNL1       -0.0003
     20 C          63.0692   81.4098   11.5091 C.ar    1  UNL1       -0.0034
@<TRIPOS>BOND
     1     1     2    1
     2     2     3   ar
     3     3     4   ar
     4     4     5   ar
     5     5     6   ar
     6     6     7   ar
     7     7    13    1
     8    13    14    1
     9    14    15    1
    10    15    16   ar
    11    16    17   ar
    12    17    18   ar
    13    18    19   ar
    14    19    20   ar
    15     7     8   ar
    16     8     9   ar
    17     9    10   ar
    18    10     2   ar
    19     9     4   ar
    20    20    15   ar
    21     1    11    1
    22     1    12    1
@<TRIPOS>MOLECULE
*****
 20 22 0 0 0
SMALL
GASTEIGER

@<TRIPOS>ATOM
      1 N          68.4112   93.2767   14.9699 N.pl3   1  UNL1       -0.3375
      2 C          67.2471   92.6191   14.2899 C.ar    1  UNL1        0.1567
      3 N          66.4253   91.4921   14.8417 N.ar    1  UNL1       -0.2245
      4 C          65.3706   91.1495   13.8316 C.ar    1  UNL1        0.0893
      5 C          64.2775   90.1224   13.8309 C.ar    1  UNL1        0.0202
      6 C          63.3543   90.0107   12.6540 C.ar    1  UNL1        0.0077
      7 C          63.5242   90.9260   11.4778 C.ar    1  UNL1        0.0261
      8 C          64.6173   91.9531   11.4786 C.ar    1  UNL1        0.0142
      9 C          65.5405   92.0649   12.6555 C.ar    1  UNL1        0.0502
     10 S          66.7002   92.9731   12.9387 S.2     1  UNL1       -0.0520
     11 H          68.6967   92.9722   15.8615 H       1  UNL1        0.1442
     12 H          68.8899   94.0127   14.5245 H       1  UNL1        0.1442
     13 S          62.6009   90.8142   10.3009 S.3     1  UNL1       -0.1088
     14 C          61.3140   90.0540   10.4268 C.3     1  UNL1        0.0884
     15 C          61.1131   88.7856    9.6516 C.ar    1  UNL1       -0.0110
     16 C          62.0804   87.6499    9.8080 C.ar    1  UNL1       -0.0034
     17 C          61.8796   86.3816    9.0329 C.ar    1  UNL1       -0.0003
     18 C          60.7114   86.2489    8.1013 C.ar    1  UNL1       -0.0000
     19 C          59.7442   87.3846    7.9448 C.ar    1  UNL1       -0.0003
     20 C          59.9450   88.6530    8.7200 C.ar    1  UNL1       -0.0034
@<TRIPOS>BOND
     1     1     2    1
     2     2     3   ar
     3     3     4   ar
     4     4     5   ar
     5     5     6   ar
     6     6     7   ar
     7     7    13    1
     8    13    14    1
     9    14    15    1
    10    15    16   ar
    11    16    17   ar
    12    17    18   ar
    13    18    19   ar
    14    19    20   ar
    15     7     8   ar
    16     8     9   ar
    17     9    10   ar
    18    10     2   ar
    19     9     4   ar
    20    20    15   ar
    21     1    11    1
    22     1    12    1
@<TRIPOS>MOLECULE
*****
 20 22 0 0 0
SMALL
GASTEIGER

@<TRIPOS>ATOM
      1 N          63.7610   81.2231   14.1940 N.pl3   1  UNL1       -0.3375
      2 C          63.5125   82.2440   13.1235 C.ar    1  UNL1        0.1567
      3 N          63.9405   82.1402   11.6896 N.ar    1  UNL1       -0.2245
      4 C          63.4848   83.3800   10.9788 C.ar    1  UNL1        0.0893
      5 C          63.6244   83.8290    9.5545 C.ar    1  UNL1        0.0202
      6 C          63.0543   85.1481    9.1247 C.ar    1  UNL1        0.0077
      7 C          62.3446   86.0183   10.1193 C.ar    1  UNL1        0.0261
      8 C          62.2051   85.5693   11.5436 C.ar    1  UNL1        0.0142
      9 C          62.7751   84.2501   11.9734 C.ar    1  UNL1        0.0502
     10 S          62.7923   83.5481   13.2989 S.2     1  UNL1       -0.0520
     11 H          64.2460   80.3935   13.9800 H       1  UNL1        0.1442
     12 H          63.4392   81.3827   15.1106 H       1  UNL1        0.1442
     13 S          61.7745   87.3375    9.6894 S.3     1  UNL1       -0.1088
     14 C          61.3993   88.3632   10.7176 C.3     1  UNL1        0.0884
     15 C          62.3807   89.4285   11.1073 C.ar    1  UNL1       -0.0110
     16 C          62.7412   90.5093   10.1317 C.ar    1  UNL1       -0.0034
     17 C          63.7226   91.5746   10.5214 C.ar    1  UNL1       -0.0003
     18 C          64.3435   91.5591   11.8867 C.ar    1  UNL1       -0.0000
     19 C          63.9831   90.4784   12.8624 C.ar    1  UNL1       -0.0003
     20 C          63.0016   89.4131   12.4727 C.ar    1  UNL1       -0.0034
@<TRIPOS>BOND
     1     1     2    1
     2     2     3   ar
     3     3     4   ar
     4     4     5   ar
     5     5     6   ar
     6     6     7   ar
     7     7    13    1
     8    13    14    1
     9    14    15    1
    10    15    16   ar
    11    16    17   ar
    12    17    18   ar
    13    18    19   ar
    14    19    20   ar
    15     7     8   ar
    16     8     9   ar
    17     9    10   ar
    18    10     2   ar
    19     9     4   ar
    20    20    15   ar
    21     1    11    1
    22     1    12    1
@<TRIPOS>MOLECULE
*****
 20 22 0 0 0
SMALL
GASTEIGER

@<TRIPOS>ATOM
      1 N          58.7918   86.4567    7.3629 N.pl3   1  UNL1       -0.3375
      2 C          59.7417   87.0197    8.3783 C.ar    1  UNL1        0.1567
      3 N          60.5748   86.2267    9.3411 N.ar    1  UNL1       -0.2245
      4 C          61.3732   87.1914   10.1670 C.ar    1  UNL1        0.0893
      5 C          62.3656   86.9843   11.2725 C.ar    1  UNL1        0.0202
      6 C          63.0183   88.1664   11.9255 C.ar    1  UNL1        0.0077
      7 C          62.6786   89.5556   11.4731 C.ar    1  UNL1        0.0261
      8 C          61.6862   89.7627   10.3676 C.ar    1  UNL1        0.0142
      9 C          61.0335   88.5806    9.7145 C.ar    1  UNL1        0.0502
     10 S          60.0251   88.4744    8.6091 S.2     1  UNL1       -0.0520
     11 H          58.6732   85.4824    7.2869 H       1  UNL1        0.1442
     12 H          58.2870   87.0616    6.7726 H       1  UNL1        0.1442
     13 S          63.3314   90.7377   12.1262 S.3     1  UNL1       -0.1088
     14 C          63.9980   90.5838   13.4610 C.3     1  UNL1        0.0884
     15 C          65.0361   91.5739   13.8996 C.ar    1  UNL1       -0.0110
     16 C          65.4784   91.6118   15.3323 C.ar    1  UNL1       -0.0034
     17 C          66.5164   92.6018   15.7708 C.ar    1  UNL1       -0.0003
     18 C          67.1121   93.5540   14.7765 C.ar    1  UNL1       -0.0000
     19 C          66.6698   93.5160   13.3438 C.ar    1  UNL1       -0.0003
     20 C          65.6318   92.5260   12.9053 C.ar    1  UNL1       -0.0034
@<TRIPOS>BOND
     1     1     2    1
     2     2     3   ar
     3     3     4   ar
     4     4     5   ar
     5     5     6   ar
     6     6     7   ar
     7     7    13    1
     8    13    14    1
     9    14    15    1
    10    15    16   ar
    11    16    17   ar
    12    17    18   ar
    13    18    19   ar
    14    19    20   ar
    15     7     8   ar
    16     8     9   ar
    17     9    10   ar
    18    10     2   ar
    19     9     4   ar
    20    20    15   ar
    21     1    11    1
    22     1    12    1
@<TRIPOS>MOLECULE
*****
 20 22 0 0 0
SMALL
GASTEIGER

@<TRIPOS>ATOM
      1 N          59.0606   86.1855    7.4298 N.pl3   1  UNL1       -0.3375
      2 C          59.8392   87.0041    8.4166 C.ar    1  UNL1        0.1567
      3 N          59.7743   88.4947    8.5715 N.ar    1  UNL1       -0.2245
      4 C          60.7143   88.8877    9.6724 C.ar    1  UNL1        0.0893
      5 C          61.0656   90.2204   10.2642 C.ar    1  UNL1        0.0202
      6 C          62.0628   90.3055   11.3815 C.ar    1  UNL1        0.0077
      7 C          62.7086   89.0578   11.9071 C.ar    1  UNL1        0.0261
      8 C          62.3572   87.7250   11.3152 C.ar    1  UNL1        0.0142
      9 C          61.3601   87.6400   10.1979 C.ar    1  UNL1        0.0502
     10 S          60.8192   86.4759    9.4218 S.2     1  UNL1       -0.0520
     11 H          58.4381   86.6261    6.8072 H       1  UNL1        0.1442
     12 H          59.1722   85.2077    7.4047 H       1  UNL1        0.1442
     13 S          63.7057   89.1429   13.0244 S.3     1  UNL1       -0.1088
     14 C          63.6365   90.2742   14.0069 C.3     1  UNL1        0.0884
     15 C          64.6980   91.3340   14.0065 C.ar    1  UNL1       -0.0110
     16 C          65.3758   91.7172   15.2885 C.ar    1  UNL1       -0.0034
     17 C          66.4373   92.7770   15.2880 C.ar    1  UNL1       -0.0003
     18 C          66.8210   93.4536   14.0055 C.ar    1  UNL1       -0.0000
     19 C          66.1432   93.0704   12.7234 C.ar    1  UNL1       -0.0003
     20 C          65.0817   92.0107   12.7239 C.ar    1  UNL1       -0.0034
@<TRIPOS>BOND
     1     1     2    1
     2     2     3   ar
     3     3     4   ar
     4     4     5   ar
     5     5     6   ar
     6     6     7   ar
     7     7    13    1
     8    13    14    1
     9    14    15    1
    10    15    16   ar
    11    16    17   ar
    12    17    18   ar
    13    18    19   ar
    14    19    20   ar
    15     7     8   ar
    16     8     9   ar
    17     9    10   ar
    18    10     2   ar
    19     9     4   ar
    20    20    15   ar
    21     1    11    1
    22     1    12    1
@<TRIPOS>MOLECULE
*****
 20 22 0 0 0
SMALL
GASTEIGER

@<TRIPOS>ATOM
      1 N          58.6468   88.5518    7.0570 N.pl3   1  UNL1       -0.3375
      2 C          59.6039   87.7876    7.9231 C.ar    1  UNL1        0.1567
      3 N          60.5623   86.7313    7.4589 N.ar    1  UNL1       -0.2245
      4 C          61.3213   86.2364    8.6543 C.ar    1  UNL1        0.0893
      5 C          62.3948   85.1993    8.8029 C.ar    1  UNL1        0.0202
      6 C          62.9789   84.9128   10.1544 C.ar    1  UNL1        0.0077
      7 C          62.4895   85.6633   11.3574 C.ar    1  UNL1        0.0261
      8 C          61.4160   86.7004   11.2089 C.ar    1  UNL1        0.0142
      9 C          60.8319   86.9869    9.8574 C.ar    1  UNL1        0.0502
     10 S          59.7705   87.9456    9.4054 S.2     1  UNL1       -0.0520
     11 H          58.6109   88.3760    6.0890 H       1  UNL1        0.1442
     12 H          58.0546   89.2292    7.4565 H       1  UNL1        0.1442
     13 S          63.0736   85.3767   12.7090 S.3     1  UNL1       -0.1088
     14 C          63.8977   84.1419   12.9234 C.3     1  UNL1        0.0884
     15 C          63.2262   82.8095   13.0778 C.ar    1  UNL1       -0.0110
     16 C          63.4898   81.7171   12.0842 C.ar    1  UNL1       -0.0034
     17 C          62.8183   80.3848   12.2386 C.ar    1  UNL1       -0.0003
     18 C          61.8832   80.1448   13.3866 C.ar    1  UNL1       -0.0000
     19 C          61.6195   81.2371   14.3802 C.ar    1  UNL1       -0.0003
     20 C          62.2910   82.5694   14.2258 C.ar    1  UNL1       -0.0034
@<TRIPOS>BOND
     1     1     2    1
     2     2     3   ar
     3     3     4   ar
     4     4     5   ar
     5     5     6   ar
     6     6     7   ar
     7     7    13    1
     8    13    14    1
     9    14    15    1
    10    15    16   ar
    11    16    17   ar
    12    17    18   ar
    13    18    19   ar
    14    19    20   ar
    15     7     8   ar
    16     8     9   ar
    17     9    10   ar
    18    10     2   ar
    19     9     4   ar
    20    20    15   ar
    21     1    11    1
    22     1    12    1
