@<TRIPOS>MOLECULE
*****
 38 42 0 0 0
SMALL
GASTEIGER

@<TRIPOS>ATOM
      1 C          62.9450   89.8380   12.6656 C.ar    1  UNL1        0.0360
      2 S          63.5230   90.7862   11.6572 S.2     1  UNL1       -0.0718
      3 C          64.5199   91.6593   12.3600 C.ar    1  UNL1        0.0983
      4 C          64.5581   91.2508   13.8027 C.ar    1  UNL1        0.0830
      5 C          63.5848   90.1251   13.9916 C.ar    1  UNL1        0.0659
      6 C          65.4742   91.9564   14.7581 C.ar    1  UNL1        0.2663
      7 O          65.5124   91.5479   16.2008 O.2     1  UNL1       -0.2668
      8 N          66.3522   93.0707   14.2707 N.ar    1  UNL1       -0.2467
      9 C          67.2683   93.7764   15.2261 C.3     1  UNL1        0.1382
     10 C          66.3141   93.4793   12.8279 C.ar    1  UNL1        0.3342
     11 O          67.1920   94.5935   12.3405 O.2     1  UNL1       -0.2462
     12 N          65.3979   92.7736   11.8726 N.ar    1  UNL1       -0.2757
     13 C          63.3010   89.4119   15.2803 C.2     1  UNL1        0.2717
     14 O          62.6762   90.1523   16.4255 O.2     1  UNL1       -0.2678
     15 N          63.6420   87.9582   15.4238 N.am    1  UNL1       -0.1620
     16 C          64.2668   87.0911   14.3714 C.3     1  UNL1        0.1561
     17 C          64.4290   85.7134   14.9420 C.3     1  UNL1        0.1648
     18 O          65.0132   84.5281   14.2322 O.3     1  UNL1       -0.3800
     19 C          63.9044   85.7290   16.3472 C.3     1  UNL1        0.2022
     20 O          63.4180   87.1164   16.6450 O.3     1  UNL1       -0.2601
     21 H          65.2756   84.7859   13.3346 H       1  UNL1        0.2105
     22 C          61.9093   88.7873   12.3955 C.3     1  UNL1        0.1420
     23 C          60.6320   89.3820   10.1239 C.ar    1  UNL1        0.1982
     24 N          60.4571   88.7050    8.7969 N.ar    1  UNL1       -0.2138
     25 C          61.2007   87.4029    8.8392 C.ar    1  UNL1        0.0999
     26 C          61.3820   86.3171    7.8204 C.ar    1  UNL1        0.0207
     27 C          62.1978   85.1036    8.1548 C.ar    1  UNL1        0.0016
     28 C          62.8323   84.9759    9.5080 C.ar    1  UNL1        0.0016
     29 C          62.6510   86.0618   10.5268 C.ar    1  UNL1        0.0188
     30 C          61.8352   87.2753   10.1924 C.ar    1  UNL1        0.0802
     31 N          61.4837   88.4984   10.9863 N.ar    1  UNL1       -0.2950
     32 C          59.0207   90.7857   11.6014 C.3     1  UNL1        0.1108
     33 N          60.0563   90.7096   10.5190 N.pl3   1  UNL1       -0.3026
     34 H          60.3582   91.5310   10.0680 H       1  UNL1        0.1496
     35 C          65.3598   93.1822   10.4298 C.3     1  UNL1        0.1109
     36 C          66.6393   93.3956    9.6766 C.3     1  UNL1        0.0228
     37 C          67.6908   92.3260    9.6660 C.3     1  UNL1        0.0020
     38 C          66.8672   94.6789    8.9340 C.3     1  UNL1        0.0020
@<TRIPOS>BOND
     1    32    33    1
     2    33    23    1
     3    23    24   ar
     4    24    25   ar
     5    25    26   ar
     6    26    27   ar
     7    27    28   ar
     8    28    29   ar
     9    29    30   ar
    10    30    31   ar
    11    31    22    1
    12    22     1    1
    13     1     2   ar
    14     2     3   ar
    15     3     4   ar
    16     4     5   ar
    17     5    13    1
    18    13    14    2
    19    13    15   am
    20    15    16    1
    21    16    17    1
    22    17    18    1
    23    17    19    1
    24    19    20    1
    25     4     6   ar
    26     6     7    2
    27     6     8   ar
    28     8     9    1
    29     8    10   ar
    30    10    11    2
    31    10    12   ar
    32    12    35    1
    33    35    36    1
    34    36    37    1
    35    36    38    1
    36    31    23   ar
    37     5     1   ar
    38    20    15    1
    39    30    25   ar
    40    12     3   ar
    41    33    34    1
    42    18    21    1
@<TRIPOS>MOLECULE
*****
 38 42 0 0 0
SMALL
GASTEIGER

@<TRIPOS>ATOM
      1 C          62.3808   89.8556   12.4811 C.ar    1  UNL1        0.0360
      2 S          63.0900   90.7914   11.5477 S.2     1  UNL1       -0.0718
      3 C          64.1958   91.4579   12.3111 C.ar    1  UNL1        0.0983
      4 C          64.1701   90.9341   13.7164 C.ar    1  UNL1        0.0830
      5 C          63.0483   89.9438   13.8215 C.ar    1  UNL1        0.0659
      6 C          65.1714   91.4265   14.7189 C.ar    1  UNL1        0.2663
      7 O          65.1457   90.9026   16.1242 O.2     1  UNL1       -0.2668
      8 N          66.1985   92.4428   14.3160 N.ar    1  UNL1       -0.2467
      9 C          67.1998   92.9352   15.3185 C.3     1  UNL1        0.1382
     10 C          66.2243   92.9667   12.9107 C.ar    1  UNL1        0.3342
     11 O          67.2513   93.9829   12.5078 O.2     1  UNL1       -0.2462
     12 N          65.2229   92.4743   11.9083 N.ar    1  UNL1       -0.2757
     13 C          62.6620   89.1764   15.0510 C.2     1  UNL1        0.2717
     14 O          61.5645   89.6846   15.9383 O.2     1  UNL1       -0.2678
     15 N          63.3731   87.9008   15.3933 N.am    1  UNL1       -0.1620
     16 C          64.4842   87.2720   14.6058 C.3     1  UNL1        0.1561
     17 C          64.8958   86.0126   15.3090 C.3     1  UNL1        0.1648
     18 O          65.9746   85.0686   14.8675 O.3     1  UNL1       -0.3800
     19 C          64.0390   85.8630   16.5312 C.3     1  UNL1        0.2022
     20 O          63.0980   87.0299   16.5833 O.3     1  UNL1       -0.2601
     21 H          66.3749   85.3961   14.0469 H       1  UNL1        0.2105
     22 C          61.2098   88.9846   12.1350 C.3     1  UNL1        0.1420
     23 C          62.1073   86.6576   11.1732 C.ar    1  UNL1        0.1982
     24 N          61.9687   85.9232    9.8727 N.ar    1  UNL1       -0.2138
     25 C          61.1165   86.7541    8.9597 C.ar    1  UNL1        0.0999
     26 C          60.6438   86.5356    7.5531 C.ar    1  UNL1        0.0207
     27 C          59.7830   87.5650    6.8828 C.ar    1  UNL1        0.0016
     28 C          59.3950   88.8129    7.6191 C.ar    1  UNL1        0.0016
     29 C          59.8677   89.0314    9.0257 C.ar    1  UNL1        0.0188
     30 C          60.7285   88.0020    9.6961 C.ar    1  UNL1        0.0802
     31 N          61.3409   87.9424   11.0641 N.ar    1  UNL1       -0.2950
     32 C          63.0532   84.7213   12.6245 C.3     1  UNL1        0.1108
     33 N          62.8773   86.1895   12.3724 N.pl3   1  UNL1       -0.3026
     34 H          63.2671   86.8458   12.9941 H       1  UNL1        0.1496
     35 C          65.2487   92.9981   10.5030 C.3     1  UNL1        0.1109
     36 C          66.5604   93.2514    9.8209 C.3     1  UNL1        0.0228
     37 C          66.8410   94.5919    9.2089 C.3     1  UNL1        0.0020
     38 C          67.5914   92.1642    9.7507 C.3     1  UNL1        0.0020
@<TRIPOS>BOND
     1    32    33    1
     2    33    23    1
     3    23    24   ar
     4    24    25   ar
     5    25    26   ar
     6    26    27   ar
     7    27    28   ar
     8    28    29   ar
     9    29    30   ar
    10    30    31   ar
    11    31    22    1
    12    22     1    1
    13     1     2   ar
    14     2     3   ar
    15     3     4   ar
    16     4     5   ar
    17     5    13    1
    18    13    14    2
    19    13    15   am
    20    15    16    1
    21    16    17    1
    22    17    18    1
    23    17    19    1
    24    19    20    1
    25     4     6   ar
    26     6     7    2
    27     6     8   ar
    28     8     9    1
    29     8    10   ar
    30    10    11    2
    31    10    12   ar
    32    12    35    1
    33    35    36    1
    34    36    37    1
    35    36    38    1
    36    31    23   ar
    37     5     1   ar
    38    20    15    1
    39    30    25   ar
    40    12     3   ar
    41    33    34    1
    42    18    21    1
@<TRIPOS>MOLECULE
*****
 38 42 0 0 0
SMALL
GASTEIGER

@<TRIPOS>ATOM
      1 C          62.6331   88.6643   12.5117 C.ar    1  UNL1        0.0360
      2 S          63.0784   87.4709   13.3037 S.2     1  UNL1       -0.0718
      3 C          63.1773   86.3035   12.3671 C.ar    1  UNL1        0.0983
      4 C          62.7931   86.7753   10.9961 C.ar    1  UNL1        0.0830
      5 C          62.4567   88.2344   11.0854 C.ar    1  UNL1        0.0659
      6 C          62.7991   85.8154    9.8435 C.ar    1  UNL1        0.2663
      7 O          62.4148   86.2873    8.4725 O.2     1  UNL1       -0.2668
      8 N          63.1894   84.3837   10.0618 N.ar    1  UNL1       -0.2467
      9 C          63.1954   83.4238    8.9092 C.3     1  UNL1        0.1382
     10 C          63.5737   83.9118   11.4328 C.ar    1  UNL1        0.3342
     11 O          63.9640   82.4800   11.6512 O.2     1  UNL1       -0.2462
     12 N          63.5676   84.8717   12.5855 N.ar    1  UNL1       -0.2757
     13 C          62.0205   89.1099    9.9482 C.2     1  UNL1        0.2717
     14 O          62.7325   90.4029    9.6813 O.2     1  UNL1       -0.2678
     15 N          60.8724   88.6924    9.0779 N.am    1  UNL1       -0.1620
     16 C          60.0687   87.4341    9.2221 C.3     1  UNL1        0.1561
     17 C          59.0260   87.4239    8.1439 C.3     1  UNL1        0.1648
     18 O          58.0036   86.3502    7.9163 O.3     1  UNL1       -0.3800
     19 C          59.1852   88.6758    7.3332 C.3     1  UNL1        0.2022
     20 O          60.3264   89.4598    7.9104 O.3     1  UNL1       -0.2601
     21 H          58.1161   85.6508    8.5790 H       1  UNL1        0.2105
     22 C          62.4042   90.0451   13.0510 C.3     1  UNL1        0.1420
     23 C          63.7293   90.7906   15.2495 C.ar    1  UNL1        0.1982
     24 N          64.9452   91.6252   15.5233 N.ar    1  UNL1       -0.2138
     25 C          65.4774   92.1141   14.2089 C.ar    1  UNL1        0.0999
     26 C          66.6551   92.9753   13.8606 C.ar    1  UNL1        0.0207
     27 C          66.9457   93.3041   12.4263 C.ar    1  UNL1        0.0016
     28 C          66.0586   92.7717   11.3401 C.ar    1  UNL1        0.0016
     29 C          64.8810   91.9105   11.6884 C.ar    1  UNL1        0.0188
     30 C          64.5903   91.5817   13.1227 C.ar    1  UNL1        0.0802
     31 N          63.5099   90.7638   13.7659 N.ar    1  UNL1       -0.2950
     32 C          63.2415   88.7252   16.7482 C.3     1  UNL1        0.1108
     33 N          62.8815   90.1036   16.2787 N.pl3   1  UNL1       -0.3026
     34 H          62.0888   90.5573   16.6461 H       1  UNL1        0.1496
     35 C          63.9519   84.3998   13.9565 C.3     1  UNL1        0.1109
     36 C          62.8957   83.9236   14.9092 C.3     1  UNL1        0.0228
     37 C          62.5168   84.7661   16.0910 C.3     1  UNL1        0.0020
     38 C          62.2185   82.6050   14.6802 C.3     1  UNL1        0.0020
@<TRIPOS>BOND
     1    32    33    1
     2    33    23    1
     3    23    24   ar
     4    24    25   ar
     5    25    26   ar
     6    26    27   ar
     7    27    28   ar
     8    28    29   ar
     9    29    30   ar
    10    30    31   ar
    11    31    22    1
    12    22     1    1
    13     1     2   ar
    14     2     3   ar
    15     3     4   ar
    16     4     5   ar
    17     5    13    1
    18    13    14    2
    19    13    15   am
    20    15    16    1
    21    16    17    1
    22    17    18    1
    23    17    19    1
    24    19    20    1
    25     4     6   ar
    26     6     7    2
    27     6     8   ar
    28     8     9    1
    29     8    10   ar
    30    10    11    2
    31    10    12   ar
    32    12    35    1
    33    35    36    1
    34    36    37    1
    35    36    38    1
    36    31    23   ar
    37     5     1   ar
    38    20    15    1
    39    30    25   ar
    40    12     3   ar
    41    33    34    1
    42    18    21    1
@<TRIPOS>MOLECULE
*****
 38 42 0 0 0
SMALL
GASTEIGER

@<TRIPOS>ATOM
      1 C          63.0794   87.0748   12.3654 C.ar    1  UNL1        0.0360
      2 S          62.5211   86.2496   11.2441 S.2     1  UNL1       -0.0718
      3 C          61.7081   87.1524   10.3644 C.ar    1  UNL1        0.0983
      4 C          61.7638   88.5356   10.9420 C.ar    1  UNL1        0.0830
      5 C          62.6114   88.4877   12.1787 C.ar    1  UNL1        0.0659
      6 C          61.0356   89.6601   10.2672 C.ar    1  UNL1        0.2663
      7 O          61.0914   91.0432   10.8449 O.2     1  UNL1       -0.2668
      8 N          60.2516   89.4014    9.0149 N.ar    1  UNL1       -0.2467
      9 C          59.5234   90.5259    8.3401 C.3     1  UNL1        0.1382
     10 C          60.1958   88.0182    8.4372 C.ar    1  UNL1        0.3342
     11 O          59.4119   87.7594    7.1849 O.2     1  UNL1       -0.2462
     12 N          60.9240   86.8937    9.1120 N.ar    1  UNL1       -0.2757
     13 C          62.9342   89.6487   13.0718 C.2     1  UNL1        0.2717
     14 O          62.3648   89.7094   14.4582 O.2     1  UNL1       -0.2678
     15 N          63.8264   90.7490   12.5786 N.am    1  UNL1       -0.1620
     16 C          64.4660   90.8251   11.2240 C.3     1  UNL1        0.1561
     17 C          65.2706   92.0896   11.1615 C.3     1  UNL1        0.1648
     18 O          66.0760   92.5651    9.9889 O.3     1  UNL1       -0.3800
     19 C          65.1282   92.7950   12.4776 C.3     1  UNL1        0.2022
     20 O          64.2357   91.9664   13.3534 O.3     1  UNL1       -0.2601
     21 H          66.0001   91.9253    9.2637 H       1  UNL1        0.2105
     22 C          63.9524   86.5751   13.4780 C.3     1  UNL1        0.1420
     23 C          63.4673   85.0042   15.5857 C.ar    1  UNL1        0.1982
     24 N          63.2051   83.5401   15.7792 N.ar    1  UNL1       -0.2138
     25 C          63.2409   82.8806   14.4325 C.ar    1  UNL1        0.0999
     26 C          63.0514   81.4547   14.0077 C.ar    1  UNL1        0.0207
     27 C          63.1461   81.0852   12.5570 C.ar    1  UNL1        0.0016
     28 C          63.4304   82.1419   11.5310 C.ar    1  UNL1        0.0016
     29 C          63.6200   83.5679   11.9558 C.ar    1  UNL1        0.0188
     30 C          63.5252   83.9373   13.4065 C.ar    1  UNL1        0.0802
     31 N          63.6651   85.2497   14.1192 N.ar    1  UNL1       -0.2950
     32 C          62.3435   86.2422   17.5742 C.3     1  UNL1        0.1108
     33 N          63.5220   86.0408   16.6684 N.pl3   1  UNL1       -0.3026
     34 H          64.3315   86.5890   16.7846 H       1  UNL1        0.1496
     35 C          60.8682   85.5105    8.5344 C.3     1  UNL1        0.1109
     36 C          61.9479   85.0419    7.6044 C.3     1  UNL1        0.0228
     37 C          61.6015   84.6092    6.2106 C.3     1  UNL1        0.0020
     38 C          63.3739   85.0061    8.0684 C.3     1  UNL1        0.0020
@<TRIPOS>BOND
     1    32    33    1
     2    33    23    1
     3    23    24   ar
     4    24    25   ar
     5    25    26   ar
     6    26    27   ar
     7    27    28   ar
     8    28    29   ar
     9    29    30   ar
    10    30    31   ar
    11    31    22    1
    12    22     1    1
    13     1     2   ar
    14     2     3   ar
    15     3     4   ar
    16     4     5   ar
    17     5    13    1
    18    13    14    2
    19    13    15   am
    20    15    16    1
    21    16    17    1
    22    17    18    1
    23    17    19    1
    24    19    20    1
    25     4     6   ar
    26     6     7    2
    27     6     8   ar
    28     8     9    1
    29     8    10   ar
    30    10    11    2
    31    10    12   ar
    32    12    35    1
    33    35    36    1
    34    36    37    1
    35    36    38    1
    36    31    23   ar
    37     5     1   ar
    38    20    15    1
    39    30    25   ar
    40    12     3   ar
    41    33    34    1
    42    18    21    1
@<TRIPOS>MOLECULE
*****
 38 42 0 0 0
SMALL
GASTEIGER

@<TRIPOS>ATOM
      1 C          60.6007   95.7790   -2.4623 C.ar    1  UNL1        0.0360
      2 S          62.0682   95.6515   -2.1793 S.2     1  UNL1       -0.0718
      3 C          62.2305   94.8355   -0.9312 C.ar    1  UNL1        0.0983
      4 C          60.8633   94.4588   -0.4427 C.ar    1  UNL1        0.0830
      5 C          59.8560   95.0419   -1.3890 C.ar    1  UNL1        0.0659
      6 C          60.7121   93.6334    0.8007 C.ar    1  UNL1        0.2663
      7 O          59.3448   93.2566    1.2892 O.2     1  UNL1       -0.2668
      8 N          61.9282   93.1848    1.5556 N.ar    1  UNL1       -0.2467
      9 C          61.7770   92.3594    2.7989 C.3     1  UNL1        0.1382
     10 C          63.2955   93.5615    1.0671 C.ar    1  UNL1        0.3342
     11 O          64.5116   93.1130    1.8219 O.2     1  UNL1       -0.2462
     12 N          63.4467   94.3869   -0.1763 N.ar    1  UNL1       -0.2757
     13 C          58.3656   94.9108   -1.2809 C.2     1  UNL1        0.2717
     14 O          57.5841   95.8927   -0.4593 O.2     1  UNL1       -0.2678
     15 N          57.6569   93.7979   -1.9943 N.am    1  UNL1       -0.1620
     16 C          58.3015   92.7462   -2.8479 C.3     1  UNL1        0.1561
     17 C          57.2221   91.8396   -3.3606 C.3     1  UNL1        0.1648
     18 O          57.4197   90.6504   -4.2532 O.3     1  UNL1       -0.3800
     19 C          55.9104   92.3308   -2.8239 C.3     1  UNL1        0.2022
     20 O          56.1791   93.5411   -1.9795 O.3     1  UNL1       -0.2601
     21 H          58.3633   90.5506   -4.4547 H       1  UNL1        0.2105
     22 C          59.9858   96.5145   -3.6159 C.3     1  UNL1        0.1420
     23 C          59.8274   94.8767   -5.7225 C.ar    1  UNL1        0.1982
     24 N          58.7087   94.3273   -6.5571 N.ar    1  UNL1       -0.2138
     25 C          57.4186   94.8711   -6.0189 C.ar    1  UNL1        0.0999
     26 C          55.9927   94.6745   -6.4408 C.ar    1  UNL1        0.0207
     27 C          54.8882   95.3633   -5.6956 C.ar    1  UNL1        0.0016
     28 C          55.2095   96.2488   -4.5282 C.ar    1  UNL1        0.0016
     29 C          56.6354   96.4455   -4.1063 C.ar    1  UNL1        0.0188
     30 C          57.7399   95.7567   -4.8516 C.ar    1  UNL1        0.0802
     31 N          59.2287   95.7601   -4.6684 N.ar    1  UNL1       -0.2950
     32 C          62.2176   95.6905   -6.3346 C.3     1  UNL1        0.1108
     33 N          61.2884   94.5925   -5.9091 N.pl3   1  UNL1       -0.3026
     34 H          61.6374   93.6854   -5.7524 H       1  UNL1        0.1496
     35 C          64.8139   94.7637   -0.6647 C.3     1  UNL1        0.1109
     36 C          65.3708   96.1229   -0.3609 C.3     1  UNL1        0.0228
     37 C          66.1692   96.8554   -1.3982 C.3     1  UNL1        0.0020
     38 C          65.1291   96.7497    0.9802 C.3     1  UNL1        0.0020
@<TRIPOS>BOND
     1    32    33    1
     2    33    23    1
     3    23    24   ar
     4    24    25   ar
     5    25    26   ar
     6    26    27   ar
     7    27    28   ar
     8    28    29   ar
     9    29    30   ar
    10    30    31   ar
    11    31    22    1
    12    22     1    1
    13     1     2   ar
    14     2     3   ar
    15     3     4   ar
    16     4     5   ar
    17     5    13    1
    18    13    14    2
    19    13    15   am
    20    15    16    1
    21    16    17    1
    22    17    18    1
    23    17    19    1
    24    19    20    1
    25     4     6   ar
    26     6     7    2
    27     6     8   ar
    28     8     9    1
    29     8    10   ar
    30    10    11    2
    31    10    12   ar
    32    12    35    1
    33    35    36    1
    34    36    37    1
    35    36    38    1
    36    31    23   ar
    37     5     1   ar
    38    20    15    1
    39    30    25   ar
    40    12     3   ar
    41    33    34    1
    42    18    21    1
@<TRIPOS>MOLECULE
*****
 38 42 0 0 0
SMALL
GASTEIGER

@<TRIPOS>ATOM
      1 C          61.4570   95.6730   -2.8346 C.ar    1  UNL1        0.0360
      2 S          62.6198   95.2583   -1.9826 S.2     1  UNL1       -0.0718
      3 C          62.0787   94.5955   -0.7506 C.ar    1  UNL1        0.0983
      4 C          60.5816   94.6004   -0.8411 C.ar    1  UNL1        0.0830
      5 C          60.1972   95.2664   -2.1291 C.ar    1  UNL1        0.0659
      6 C          59.7615   93.9980    0.2610 C.ar    1  UNL1        0.2663
      7 O          58.2643   94.0029    0.1705 O.2     1  UNL1       -0.2668
      8 N          60.4387   93.3905    1.4536 N.ar    1  UNL1       -0.2467
      9 C          59.6187   92.7880    2.5557 C.3     1  UNL1        0.1382
     10 C          61.9360   93.3855    1.5441 C.ar    1  UNL1        0.3342
     11 O          62.6133   92.7780    2.7367 O.2     1  UNL1       -0.2462
     12 N          62.7560   93.9880    0.4421 N.ar    1  UNL1       -0.2757
     13 C          58.7987   95.4870   -2.6245 C.2     1  UNL1        0.2717
     14 O          58.1881   96.8556   -2.5620 O.2     1  UNL1       -0.2678
     15 N          58.0109   94.3390   -3.1825 N.am    1  UNL1       -0.1620
     16 C          58.4862   92.9219   -3.3083 C.3     1  UNL1        0.1561
     17 C          57.3785   92.1135   -3.9162 C.3     1  UNL1        0.1648
     18 O          57.4229   90.6455   -4.2207 O.3     1  UNL1       -0.3800
     19 C          56.2185   93.0311   -4.1661 C.3     1  UNL1        0.2022
     20 O          56.6093   94.4065   -3.7127 O.3     1  UNL1       -0.2601
     21 H          58.2870   90.2878   -3.9630 H       1  UNL1        0.2105
     22 C          61.5393   96.3715   -4.1594 C.3     1  UNL1        0.1420
     23 C          61.4978   94.7947   -6.3174 C.ar    1  UNL1        0.1982
     24 N          62.5197   94.3335   -7.3138 N.ar    1  UNL1       -0.2138
     25 C          63.8387   94.9423   -6.9407 C.ar    1  UNL1        0.0999
     26 C          65.2013   94.8424   -7.5597 C.ar    1  UNL1        0.0207
     27 C          66.3573   95.5800   -6.9517 C.ar    1  UNL1        0.0016
     28 C          66.1506   96.4176   -5.7246 C.ar    1  UNL1        0.0016
     29 C          64.7880   96.5175   -5.1056 C.ar    1  UNL1        0.0188
     30 C          63.6321   95.7799   -5.7136 C.ar    1  UNL1        0.0802
     31 N          62.1853   95.6887   -5.3284 N.ar    1  UNL1       -0.2950
     32 C          59.2275   94.5728   -7.5610 C.3     1  UNL1        0.1108
     33 N          60.0436   94.4266   -6.3110 N.pl3   1  UNL1       -0.3026
     34 H          59.6249   94.0890   -5.4864 H       1  UNL1        0.1496
     35 C          64.2533   93.9830    0.5326 C.3     1  UNL1        0.1109
     36 C          64.9801   95.2063    1.0072 C.3     1  UNL1        0.0228
     37 C          65.6554   96.1087    0.0175 C.3     1  UNL1        0.0020
     38 C          65.0315   95.5271    2.4716 C.3     1  UNL1        0.0020
@<TRIPOS>BOND
     1    32    33    1
     2    33    23    1
     3    23    24   ar
     4    24    25   ar
     5    25    26   ar
     6    26    27   ar
     7    27    28   ar
     8    28    29   ar
     9    29    30   ar
    10    30    31   ar
    11    31    22    1
    12    22     1    1
    13     1     2   ar
    14     2     3   ar
    15     3     4   ar
    16     4     5   ar
    17     5    13    1
    18    13    14    2
    19    13    15   am
    20    15    16    1
    21    16    17    1
    22    17    18    1
    23    17    19    1
    24    19    20    1
    25     4     6   ar
    26     6     7    2
    27     6     8   ar
    28     8     9    1
    29     8    10   ar
    30    10    11    2
    31    10    12   ar
    32    12    35    1
    33    35    36    1
    34    36    37    1
    35    36    38    1
    36    31    23   ar
    37     5     1   ar
    38    20    15    1
    39    30    25   ar
    40    12     3   ar
    41    33    34    1
    42    18    21    1
@<TRIPOS>MOLECULE
*****
 38 42 0 0 0
SMALL
GASTEIGER

@<TRIPOS>ATOM
      1 C          63.0461   88.4990   12.9510 C.ar    1  UNL1        0.0360
      2 S          64.2277   89.0416   13.6988 S.2     1  UNL1       -0.0718
      3 C          64.6649   90.3059   13.0203 C.ar    1  UNL1        0.0983
      4 C          63.7536   90.5447   11.8532 C.ar    1  UNL1        0.0830
      5 C          62.7530   89.4279   11.8103 C.ar    1  UNL1        0.0659
      6 C          63.9525   91.7482   10.9802 C.ar    1  UNL1        0.2663
      7 O          63.0410   91.9869    9.8130 O.2     1  UNL1       -0.2668
      8 N          65.0627   92.7129   11.2744 N.ar    1  UNL1       -0.2467
      9 C          65.2616   93.9164   10.4014 C.3     1  UNL1        0.1382
     10 C          65.9742   92.4742   12.4415 C.ar    1  UNL1        0.3342
     11 O          67.0845   93.4388   12.7358 O.2     1  UNL1       -0.2462
     12 N          65.7753   91.2707   13.3145 N.ar    1  UNL1       -0.2757
     13 C          61.6526   89.2682   10.8035 C.2     1  UNL1        0.2717
     14 O          60.5226   90.2538   10.7649 O.2     1  UNL1       -0.2678
     15 N          61.6823   88.1229    9.8354 N.am    1  UNL1       -0.1620
     16 C          62.7416   87.0639    9.7546 C.3     1  UNL1        0.1561
     17 C          62.3719   86.1220    8.6473 C.3     1  UNL1        0.1648
     18 O          63.1529   84.9151    8.2188 O.3     1  UNL1       -0.3800
     19 C          61.0841   86.5988    8.0437 C.3     1  UNL1        0.2022
     20 O          60.6580   87.8354    8.7780 O.3     1  UNL1       -0.2601
     21 H          63.9457   84.8302    8.7711 H       1  UNL1        0.2105
     22 C          62.2902   87.2472   13.2851 C.3     1  UNL1        0.1420
     23 C          63.5646   85.8749   15.1925 C.ar    1  UNL1        0.1982
     24 N          64.2177   84.5269   15.2727 N.ar    1  UNL1       -0.2138
     25 C          64.0790   83.8642   13.9342 C.ar    1  UNL1        0.0999
     26 C          64.5300   82.5276   13.4245 C.ar    1  UNL1        0.0207
     27 C          64.2421   82.1292   12.0073 C.ar    1  UNL1        0.0016
     28 C          63.5032   83.0676   11.0998 C.ar    1  UNL1        0.0016
     29 C          63.0522   84.4042   11.6096 C.ar    1  UNL1        0.0188
     30 C          63.3401   84.8025   13.0268 C.ar    1  UNL1        0.0802
     31 N          63.0221   86.0452   13.8044 N.ar    1  UNL1       -0.2950
     32 C          62.6980   86.5468   17.5478 C.3     1  UNL1        0.1108
     33 N          63.4704   86.8766   16.3050 N.pl3   1  UNL1       -0.3026
     34 H          63.9155   87.7505   16.2195 H       1  UNL1        0.1496
     35 C          66.6867   91.0319   14.4817 C.3     1  UNL1        0.1109
     36 C          66.7521   92.0307   15.5989 C.3     1  UNL1        0.0228
     37 C          65.4943   92.4652   16.2910 C.3     1  UNL1        0.0020
     38 C          68.0753   92.5949   16.0240 C.3     1  UNL1        0.0020
@<TRIPOS>BOND
     1    32    33    1
     2    33    23    1
     3    23    24   ar
     4    24    25   ar
     5    25    26   ar
     6    26    27   ar
     7    27    28   ar
     8    28    29   ar
     9    29    30   ar
    10    30    31   ar
    11    31    22    1
    12    22     1    1
    13     1     2   ar
    14     2     3   ar
    15     3     4   ar
    16     4     5   ar
    17     5    13    1
    18    13    14    2
    19    13    15   am
    20    15    16    1
    21    16    17    1
    22    17    18    1
    23    17    19    1
    24    19    20    1
    25     4     6   ar
    26     6     7    2
    27     6     8   ar
    28     8     9    1
    29     8    10   ar
    30    10    11    2
    31    10    12   ar
    32    12    35    1
    33    35    36    1
    34    36    37    1
    35    36    38    1
    36    31    23   ar
    37     5     1   ar
    38    20    15    1
    39    30    25   ar
    40    12     3   ar
    41    33    34    1
    42    18    21    1
@<TRIPOS>MOLECULE
*****
 38 42 0 0 0
SMALL
GASTEIGER

@<TRIPOS>ATOM
      1 C          63.3140   85.9831   12.7630 C.ar    1  UNL1        0.0360
      2 S          62.5392   87.1693   12.2707 S.2     1  UNL1       -0.0718
      3 C          62.0778   86.8745   10.8742 C.ar    1  UNL1        0.0983
      4 C          62.5675   85.5061   10.5034 C.ar    1  UNL1        0.0830
      5 C          63.3316   84.9551   11.6707 C.ar    1  UNL1        0.0659
      6 C          62.2545   84.9385    9.1506 C.ar    1  UNL1        0.2663
      7 O          62.7443   83.5701    8.7798 O.2     1  UNL1       -0.2668
      8 N          61.4518   85.7394    8.1687 N.ar    1  UNL1       -0.2467
      9 C          61.1388   85.1718    6.8160 C.3     1  UNL1        0.1382
     10 C          60.9620   87.1078    8.5395 C.ar    1  UNL1        0.3342
     11 O          60.1593   87.9087    7.5576 O.2     1  UNL1       -0.2462
     12 N          61.2750   87.6754    9.8922 N.ar    1  UNL1       -0.2757
     13 C          63.9964   83.6121   11.7346 C.2     1  UNL1        0.2717
     14 O          65.3228   83.3993   11.0672 O.2     1  UNL1       -0.2678
     15 N          63.3349   82.4817   12.4658 N.am    1  UNL1       -0.1620
     16 C          62.0160   82.5440   13.1776 C.3     1  UNL1        0.1561
     17 C          61.7420   81.1914   13.7653 C.3     1  UNL1        0.1648
     18 O          60.5311   80.8050   14.5617 O.3     1  UNL1       -0.3800
     19 C          62.8917   80.2932   13.4169 C.3     1  UNL1        0.2022
     20 O          63.8761   81.0906   12.6138 O.3     1  UNL1       -0.2601
     21 H          59.9401   81.5698   14.6432 H       1  UNL1        0.2105
     22 C          63.9582   85.8483   14.1109 C.3     1  UNL1        0.1420
     23 C          62.9814   86.5073   16.5102 C.ar    1  UNL1        0.1982
     24 N          62.8494   87.7832   17.2877 N.ar    1  UNL1       -0.2138
     25 C          63.4203   88.8937   16.4566 C.ar    1  UNL1        0.0999
     26 C          63.5614   90.3655   16.7086 C.ar    1  UNL1        0.0207
     27 C          64.1873   91.2478   15.6695 C.ar    1  UNL1        0.0016
     28 C          64.6722   90.6582   14.3783 C.ar    1  UNL1        0.0016
     29 C          64.5311   89.1863   14.1263 C.ar    1  UNL1        0.0188
     30 C          63.9052   88.3041   15.1654 C.ar    1  UNL1        0.0802
     31 N          63.6339   86.8292   15.1985 N.ar    1  UNL1       -0.2950
     32 C          62.5260   84.0013   15.9978 C.3     1  UNL1        0.1108
     33 N          62.5386   85.1480   16.9646 N.pl3   1  UNL1       -0.3026
     34 H          62.2562   85.0086   17.8974 H       1  UNL1        0.1496
     35 C          60.7853   89.0439   10.2630 C.3     1  UNL1        0.1109
     36 C          61.7391   90.0543   10.8280 C.3     1  UNL1        0.0228
     37 C          62.8460   90.5997    9.9753 C.3     1  UNL1        0.0020
     38 C          61.5859   90.5192   12.2459 C.3     1  UNL1        0.0020
@<TRIPOS>BOND
     1    32    33    1
     2    33    23    1
     3    23    24   ar
     4    24    25   ar
     5    25    26   ar
     6    26    27   ar
     7    27    28   ar
     8    28    29   ar
     9    29    30   ar
    10    30    31   ar
    11    31    22    1
    12    22     1    1
    13     1     2   ar
    14     2     3   ar
    15     3     4   ar
    16     4     5   ar
    17     5    13    1
    18    13    14    2
    19    13    15   am
    20    15    16    1
    21    16    17    1
    22    17    18    1
    23    17    19    1
    24    19    20    1
    25     4     6   ar
    26     6     7    2
    27     6     8   ar
    28     8     9    1
    29     8    10   ar
    30    10    11    2
    31    10    12   ar
    32    12    35    1
    33    35    36    1
    34    36    37    1
    35    36    38    1
    36    31    23   ar
    37     5     1   ar
    38    20    15    1
    39    30    25   ar
    40    12     3   ar
    41    33    34    1
    42    18    21    1
