@<TRIPOS>MOLECULE
*****
 16 18 0 0 0
SMALL
GASTEIGER

@<TRIPOS>ATOM
      1 O          65.3984   92.8161   13.4188 O.2     1  UNL1       -0.2913
      2 C          64.7954   91.4426   13.4241 C.2     1  UNL1        0.1731
      3 C          64.9036   90.4365   14.5314 C.3     1  UNL1        0.0738
      4 C          64.1535   89.2063   14.1147 C.3     1  UNL1        0.0346
      5 C          63.5817   89.4520   12.7499 C.ar    1  UNL1       -0.0190
      6 C          62.7511   88.5957   11.8406 C.ar    1  UNL1       -0.0041
      7 C          62.3171   89.1217   10.5046 C.ar    1  UNL1        0.0012
      8 C          62.7139   90.5038   10.0778 C.ar    1  UNL1        0.0001
      9 C          63.5445   91.3601   10.9870 C.ar    1  UNL1        0.0025
     10 C          63.9784   90.8342   12.3231 C.ar    1  UNL1        0.0308
     11 C          61.4864   88.2654    9.5952 C.ar    1  UNL1        0.0192
     12 C          61.9270   86.8687    9.2708 C.ar    1  UNL1        0.0031
     13 C          61.0964   86.0125    8.3615 C.ar    1  UNL1        0.0207
     14 C          59.8251   86.5529    7.7766 C.ar    1  UNL1        0.0989
     15 N          59.3846   87.9495    8.1010 N.ar    1  UNL1       -0.2423
     16 C          60.2153   88.8058    9.0104 C.ar    1  UNL1        0.0988
@<TRIPOS>BOND
     1     1     2    2
     2     2     3    1
     3     3     4    1
     4     4     5    1
     5     5     6   ar
     6     6     7   ar
     7     7    11    1
     8    11    12   ar
     9    12    13   ar
    10    13    14   ar
    11    14    15   ar
    12    15    16   ar
    13     7     8   ar
    14     8     9   ar
    15     9    10   ar
    16    10     2    1
    17    10     5   ar
    18    16    11   ar
@<TRIPOS>MOLECULE
*****
 16 18 0 0 0
SMALL
GASTEIGER

@<TRIPOS>ATOM
      1 O          61.0128   87.9006   11.5693 O.2     1  UNL1       -0.2913
      2 C          61.8677   89.1092   11.3273 C.2     1  UNL1        0.1731
      3 C          61.7675   90.0397   10.1551 C.3     1  UNL1        0.0738
      4 C          62.8107   91.1050   10.3185 C.3     1  UNL1        0.0346
      5 C          63.5556   90.8330   11.5917 C.ar    1  UNL1       -0.0190
      6 C          64.6894   91.5491   12.2638 C.ar    1  UNL1       -0.0041
      7 C          65.2402   91.0317   13.5595 C.ar    1  UNL1        0.0012
      8 C          64.6574   89.7982   14.1830 C.ar    1  UNL1        0.0001
      9 C          63.5237   89.0821   13.5109 C.ar    1  UNL1        0.0025
     10 C          62.9728   89.5995   12.2152 C.ar    1  UNL1        0.0308
     11 C          66.3740   91.7479   14.2317 C.ar    1  UNL1        0.0192
     12 C          66.1973   92.2999   15.6152 C.ar    1  UNL1        0.0031
     13 C          67.3310   93.0159   16.2874 C.ar    1  UNL1        0.0207
     14 C          68.6415   93.1801   15.5761 C.ar    1  UNL1        0.0989
     15 N          68.8182   92.6280   14.1926 N.ar    1  UNL1       -0.2423
     16 C          67.6844   91.9119   13.5204 C.ar    1  UNL1        0.0988
@<TRIPOS>BOND
     1     1     2    2
     2     2     3    1
     3     3     4    1
     4     4     5    1
     5     5     6   ar
     6     6     7   ar
     7     7    11    1
     8    11    12   ar
     9    12    13   ar
    10    13    14   ar
    11    14    15   ar
    12    15    16   ar
    13     7     8   ar
    14     8     9   ar
    15     9    10   ar
    16    10     2    1
    17    10     5   ar
    18    16    11   ar
@<TRIPOS>MOLECULE
*****
 16 18 0 0 0
SMALL
GASTEIGER

@<TRIPOS>ATOM
      1 O          62.2167   86.3388   18.3053 O.2     1  UNL1       -0.2913
      2 C          62.9926   86.5147   17.0336 C.2     1  UNL1        0.1731
      3 C          63.5295   85.4129   16.1688 C.3     1  UNL1        0.0738
      4 C          64.2366   86.0406   15.0043 C.3     1  UNL1        0.0346
      5 C          64.1366   87.5302   15.1494 C.ar    1  UNL1       -0.0190
      6 C          64.6464   88.6577   14.3015 C.ar    1  UNL1       -0.0041
      7 C          64.3873   90.0781   14.7078 C.ar    1  UNL1        0.0012
      8 C          63.6184   90.3711   15.9620 C.ar    1  UNL1        0.0001
      9 C          63.1087   89.2437   16.8099 C.ar    1  UNL1        0.0025
     10 C          63.3678   87.8232   16.4036 C.ar    1  UNL1        0.0308
     11 C          64.8970   91.2057   13.8599 C.ar    1  UNL1        0.0192
     12 C          64.4476   91.3348   12.4347 C.ar    1  UNL1        0.0031
     13 C          64.9573   92.4623   11.5868 C.ar    1  UNL1        0.0207
     14 C          65.9164   93.4607   12.1641 C.ar    1  UNL1        0.0989
     15 N          66.3659   93.3316   13.5894 N.ar    1  UNL1       -0.2423
     16 C          65.8561   92.2040   14.4373 C.ar    1  UNL1        0.0988
@<TRIPOS>BOND
     1     1     2    2
     2     2     3    1
     3     3     4    1
     4     4     5    1
     5     5     6   ar
     6     6     7   ar
     7     7    11    1
     8    11    12   ar
     9    12    13   ar
    10    13    14   ar
    11    14    15   ar
    12    15    16   ar
    13     7     8   ar
    14     8     9   ar
    15     9    10   ar
    16    10     2    1
    17    10     5   ar
    18    16    11   ar
@<TRIPOS>MOLECULE
*****
 16 18 0 0 0
SMALL
GASTEIGER

@<TRIPOS>ATOM
      1 O          58.5052   87.7136    7.4338 O.2     1  UNL1       -0.2913
      2 C          59.7594   87.3279    8.1605 C.2     1  UNL1        0.1731
      3 C          60.5017   86.0329    8.0120 C.3     1  UNL1        0.0738
      4 C          61.6926   86.0741    8.9230 C.3     1  UNL1        0.0346
      5 C          61.6864   87.3946    9.6346 C.ar    1  UNL1       -0.0190
      6 C          62.6143   87.9915   10.6508 C.ar    1  UNL1       -0.0041
      7 C          62.3474   89.3633   11.1957 C.ar    1  UNL1        0.0012
      8 C          61.1526   90.1381   10.7244 C.ar    1  UNL1        0.0001
      9 C          60.2247   89.5412    9.7083 C.ar    1  UNL1        0.0025
     10 C          60.4916   88.1694    9.1633 C.ar    1  UNL1        0.0308
     11 C          63.2754   89.9602   12.2119 C.ar    1  UNL1        0.0192
     12 C          63.7461   89.1359   13.3733 C.ar    1  UNL1        0.0031
     13 C          64.6740   89.7328   14.3895 C.ar    1  UNL1        0.0207
     14 C          65.1312   91.1541   14.2443 C.ar    1  UNL1        0.0989
     15 N          64.6604   91.9784   13.0829 N.ar    1  UNL1       -0.2423
     16 C          63.7325   91.3814   12.0667 C.ar    1  UNL1        0.0988
@<TRIPOS>BOND
     1     1     2    2
     2     2     3    1
     3     3     4    1
     4     4     5    1
     5     5     6   ar
     6     6     7   ar
     7     7    11    1
     8    11    12   ar
     9    12    13   ar
    10    13    14   ar
    11    14    15   ar
    12    15    16   ar
    13     7     8   ar
    14     8     9   ar
    15     9    10   ar
    16    10     2    1
    17    10     5   ar
    18    16    11   ar
@<TRIPOS>MOLECULE
*****
 16 18 0 0 0
SMALL
GASTEIGER

@<TRIPOS>ATOM
      1 O          65.0923   93.6251   10.4657 O.2     1  UNL1       -0.2913
      2 C          65.4888   93.1144   11.8193 C.2     1  UNL1        0.1731
      3 C          66.4925   93.7434   12.7396 C.3     1  UNL1        0.0738
      4 C          66.5752   92.9028   13.9792 C.3     1  UNL1        0.0346
      5 C          65.6226   91.7544   13.8250 C.ar    1  UNL1       -0.0190
      6 C          65.2799   90.6065   14.7276 C.ar    1  UNL1       -0.0041
      7 C          64.2657   89.5894   14.2953 C.ar    1  UNL1        0.0012
      8 C          63.5943   89.7202   12.9604 C.ar    1  UNL1        0.0001
      9 C          63.9370   90.8681   12.0577 C.ar    1  UNL1        0.0025
     10 C          64.9512   91.8852   12.4900 C.ar    1  UNL1        0.0308
     11 C          63.9229   88.4414   15.1980 C.ar    1  UNL1        0.0192
     12 C          63.2126   88.6933   16.4949 C.ar    1  UNL1        0.0031
     13 C          62.8698   87.5455   17.3976 C.ar    1  UNL1        0.0207
     14 C          63.2374   86.1456   17.0033 C.ar    1  UNL1        0.0989
     15 N          63.9477   85.8937   15.7064 N.ar    1  UNL1       -0.2423
     16 C          64.2905   87.0417   14.8038 C.ar    1  UNL1        0.0988
@<TRIPOS>BOND
     1     1     2    2
     2     2     3    1
     3     3     4    1
     4     4     5    1
     5     5     6   ar
     6     6     7   ar
     7     7    11    1
     8    11    12   ar
     9    12    13   ar
    10    13    14   ar
    11    14    15   ar
    12    15    16   ar
    13     7     8   ar
    14     8     9   ar
    15     9    10   ar
    16    10     2    1
    17    10     5   ar
    18    16    11   ar
@<TRIPOS>MOLECULE
*****
 16 18 0 0 0
SMALL
GASTEIGER

@<TRIPOS>ATOM
      1 O          65.2177   81.8596   12.0435 O.2     1  UNL1       -0.2913
      2 C          64.2082   82.9242   12.3556 C.2     1  UNL1        0.1731
      3 C          63.7046   83.2887   13.7208 C.3     1  UNL1        0.0738
      4 C          62.7101   84.4010   13.5662 C.3     1  UNL1        0.0346
      5 C          62.5991   84.7240   12.1056 C.ar    1  UNL1       -0.0190
      6 C          61.7747   85.7312   11.3602 C.ar    1  UNL1       -0.0041
      7 C          61.8760   85.8258    9.8667 C.ar    1  UNL1        0.0012
      8 C          62.8019   84.9130    9.1185 C.ar    1  UNL1        0.0001
      9 C          63.6263   83.9058    9.8639 C.ar    1  UNL1        0.0025
     10 C          63.5250   83.8113   11.3574 C.ar    1  UNL1        0.0308
     11 C          61.0515   86.8330    9.1212 C.ar    1  UNL1        0.0192
     12 C          61.1435   88.2876    9.4758 C.ar    1  UNL1        0.0031
     13 C          60.3191   89.2949    8.7304 C.ar    1  UNL1        0.0207
     14 C          59.4025   88.8476    7.6304 C.ar    1  UNL1        0.0989
     15 N          59.3105   87.3930    7.2759 N.ar    1  UNL1       -0.2423
     16 C          60.1350   86.3857    8.0213 C.ar    1  UNL1        0.0988
@<TRIPOS>BOND
     1     1     2    2
     2     2     3    1
     3     3     4    1
     4     4     5    1
     5     5     6   ar
     6     6     7   ar
     7     7    11    1
     8    11    12   ar
     9    12    13   ar
    10    13    14   ar
    11    14    15   ar
    12    15    16   ar
    13     7     8   ar
    14     8     9   ar
    15     9    10   ar
    16    10     2    1
    17    10     5   ar
    18    16    11   ar
@<TRIPOS>MOLECULE
*****
 16 18 0 0 0
SMALL
GASTEIGER

@<TRIPOS>ATOM
      1 O          64.3073   82.9627   14.0273 O.2     1  UNL1       -0.2913
      2 C          64.0972   83.1640   12.5558 C.2     1  UNL1        0.1731
      3 C          64.7272   82.3603   11.4572 C.3     1  UNL1        0.0738
      4 C          64.2396   82.9040   10.1470 C.3     1  UNL1        0.0346
      5 C          63.3082   84.0438   10.4359 C.ar    1  UNL1       -0.0190
      6 C          62.5289   84.9561    9.5357 C.ar    1  UNL1       -0.0041
      7 C          61.6616   86.0290   10.1243 C.ar    1  UNL1        0.0012
      8 C          61.5736   86.1897   11.6131 C.ar    1  UNL1        0.0001
      9 C          62.3529   85.2774   12.5133 C.ar    1  UNL1        0.0025
     10 C          63.2202   84.2045   11.9247 C.ar    1  UNL1        0.0308
     11 C          60.8822   86.9414    9.2241 C.ar    1  UNL1        0.0192
     12 C          59.9793   86.3664    8.1734 C.ar    1  UNL1        0.0031
     13 C          59.1999   87.2786    7.2732 C.ar    1  UNL1        0.0207
     14 C          59.3235   88.7660    7.4238 C.ar    1  UNL1        0.0989
     15 N          60.2264   89.3410    8.4746 N.ar    1  UNL1       -0.2423
     16 C          61.0057   88.4286    9.3747 C.ar    1  UNL1        0.0988
@<TRIPOS>BOND
     1     1     2    2
     2     2     3    1
     3     3     4    1
     4     4     5    1
     5     5     6   ar
     6     6     7   ar
     7     7    11    1
     8    11    12   ar
     9    12    13   ar
    10    13    14   ar
    11    14    15   ar
    12    15    16   ar
    13     7     8   ar
    14     8     9   ar
    15     9    10   ar
    16    10     2    1
    17    10     5   ar
    18    16    11   ar
@<TRIPOS>MOLECULE
*****
 16 18 0 0 0
SMALL
GASTEIGER

@<TRIPOS>ATOM
      1 O          61.6707   90.1407    9.7921 O.2     1  UNL1       -0.2913
      2 C          62.3496   89.4389   10.9309 C.2     1  UNL1        0.1731
      3 C          63.1388   90.0939   12.0254 C.3     1  UNL1        0.0738
      4 C          63.6353   89.0187   12.9459 C.3     1  UNL1        0.0346
      5 C          63.1529   87.6992   12.4204 C.ar    1  UNL1       -0.0190
      6 C          63.3345   86.2949   12.9150 C.ar    1  UNL1       -0.0041
      7 C          62.7214   85.1502   12.1641 C.ar    1  UNL1        0.0012
      8 C          61.9268   85.4099   10.9187 C.ar    1  UNL1        0.0001
      9 C          61.7452   86.8143   10.4241 C.ar    1  UNL1        0.0025
     10 C          62.3582   87.9589   11.1750 C.ar    1  UNL1        0.0308
     11 C          62.9030   83.7457   12.6587 C.ar    1  UNL1        0.0192
     12 C          62.7039   82.5897   11.7238 C.ar    1  UNL1        0.0031
     13 C          62.8855   81.1853   12.2183 C.ar    1  UNL1        0.0207
     14 C          63.2662   80.9368   13.6478 C.ar    1  UNL1        0.0989
     15 N          63.4653   82.0927   14.5827 N.ar    1  UNL1       -0.2423
     16 C          63.2837   83.4972   14.0881 C.ar    1  UNL1        0.0988
@<TRIPOS>BOND
     1     1     2    2
     2     2     3    1
     3     3     4    1
     4     4     5    1
     5     5     6   ar
     6     6     7   ar
     7     7    11    1
     8    11    12   ar
     9    12    13   ar
    10    13    14   ar
    11    14    15   ar
    12    15    16   ar
    13     7     8   ar
    14     8     9   ar
    15     9    10   ar
    16    10     2    1
    17    10     5   ar
    18    16    11   ar
@<TRIPOS>MOLECULE
*****
 16 18 0 0 0
SMALL
GASTEIGER

@<TRIPOS>ATOM
      1 O          63.5503   89.1564   14.7850 O.2     1  UNL1       -0.2913
      2 C          63.4939   89.7564   13.4114 C.2     1  UNL1        0.1731
      3 C          62.6326   89.2843   12.2777 C.3     1  UNL1        0.0738
      4 C          62.8953   90.1701   11.0960 C.3     1  UNL1        0.0346
      5 C          63.9189   91.1897   11.4994 C.ar    1  UNL1       -0.0190
      6 C          64.5618   92.3179   10.7486 C.ar    1  UNL1       -0.0041
      7 C          65.5747   93.1904   11.4287 C.ar    1  UNL1        0.0012
      8 C          65.9447   92.9347   12.8598 C.ar    1  UNL1        0.0001
      9 C          65.3017   91.8066   13.6106 C.ar    1  UNL1        0.0025
     10 C          64.2888   90.9340   12.9304 C.ar    1  UNL1        0.0308
     11 C          66.2177   94.3186   10.6779 C.ar    1  UNL1        0.0192
     12 C          67.0081   94.0377    9.4343 C.ar    1  UNL1        0.0031
     13 C          67.6511   95.1659    8.6835 C.ar    1  UNL1        0.0207
     14 C          67.5038   96.5750    9.1763 C.ar    1  UNL1        0.0989
     15 N          66.7134   96.8559   10.4198 N.ar    1  UNL1       -0.2423
     16 C          66.0704   95.7277   11.1707 C.ar    1  UNL1        0.0988
@<TRIPOS>BOND
     1     1     2    2
     2     2     3    1
     3     3     4    1
     4     4     5    1
     5     5     6   ar
     6     6     7   ar
     7     7    11    1
     8    11    12   ar
     9    12    13   ar
    10    13    14   ar
    11    14    15   ar
    12    15    16   ar
    13     7     8   ar
    14     8     9   ar
    15     9    10   ar
    16    10     2    1
    17    10     5   ar
    18    16    11   ar
