@<TRIPOS>MOLECULE
*****
 40 44 0 0 0
SMALL
GASTEIGER

@<TRIPOS>ATOM
      1 N          63.9213   89.3229   15.5023 N.ar    1  UNL1       -0.2715
      2 C          63.4390   89.9079   16.7965 C.ar    1  UNL1        0.2649
      3 O          63.5147   91.3886   17.0248 O.2     1  UNL1       -0.2666
      4 C          62.8809   89.0123   17.8626 C.ar    1  UNL1        0.0611
      5 C          62.8052   87.5317   17.6344 C.ar    1  UNL1        0.0064
      6 C          63.2876   86.9467   16.3401 C.ar    1  UNL1        0.0177
      7 C          63.2119   85.4661   16.1119 C.ar    1  UNL1        0.0216
      8 C          63.6942   84.8811   14.8177 C.ar    1  UNL1        0.1253
      9 C          64.2523   85.7767   13.7516 C.ar    1  UNL1        0.0217
     10 C          64.3280   87.2573   13.9798 C.ar    1  UNL1        0.0190
     11 C          63.8456   87.8423   15.2740 C.ar    1  UNL1        0.0670
     12 C          65.5954   92.0097   12.3041 C.ar    1  UNL1        0.0307
     13 C          64.2266   91.4173   12.1452 C.ar    1  UNL1        0.0406
     14 C          63.6686   90.5217   13.2112 C.ar    1  UNL1        0.1549
     15 C          64.4794   90.2185   14.4362 C.ar    1  UNL1        0.1029
     16 C          65.8483   90.8110   14.5952 C.ar    1  UNL1        0.0503
     17 C          66.4063   91.7066   13.5291 C.ar    1  UNL1        0.1417
     18 F          67.7751   92.2990   13.6881 F       1  UNL1       -0.2041
     19 C          66.2037   95.2054   10.0307 C.ar    1  UNL1        0.1492
     20 C          65.6457   94.3098   11.0968 C.ar    1  UNL1        0.0378
     21 C          66.1535   92.9053   11.2380 C.ar    1  UNL1        0.0053
     22 C          67.2192   92.3966   10.3132 C.ar    1  UNL1        0.0011
     23 C          67.7773   93.2922    9.2472 C.ar    1  UNL1        0.0145
     24 C          67.2696   94.6966    9.1059 C.ar    1  UNL1        0.0915
     25 CL         67.8276   95.5922    8.0398 Cl      1  UNL1       -0.0791
     26 C          64.2672   96.8555    9.5048 C.3     1  UNL1        0.2525
     27 O          65.6960   96.6097    9.8895 O.3     1  UNL1       -0.4706
     28 O          62.2997   89.9293   13.0522 O.3     1  UNL1       -0.4700
     29 C          61.8908   89.3270   11.7408 C.3     1  UNL1        0.2525
     30 S          63.6185   83.4005   14.5895 S.O2    1  UNL1        0.0758
     31 O          65.1158   83.3332   14.5299 O.2     1  UNL1       -0.1499
     32 O          62.1213   83.4678   14.6490 O.2     1  UNL1       -0.1499
     33 N          63.5429   81.9199   14.3612 N.pl3   1  UNL1       -0.1835
     34 H          63.6006   81.3006   15.1244 H       1  UNL1        0.1767
     35 C          63.3794   81.3828   12.9702 C.ar    1  UNL1        0.2360
     36 N          63.7872   82.2163   11.7917 N.ar    1  UNL1       -0.2110
     37 C          63.6237   81.6792   10.4007 C.ar    1  UNL1        0.1035
     38 C          63.0524   80.3086   10.1883 C.ar    1  UNL1        0.0414
     39 C          62.6446   79.4751   11.3669 C.ar    1  UNL1        0.1035
     40 N          62.8081   80.0122   12.7578 N.ar    1  UNL1       -0.2110
@<TRIPOS>BOND
     1    26    27    1
     2    27    19    1
     3    19    20   ar
     4    20    21   ar
     5    21    12    1
     6    12    13   ar
     7    13    14   ar
     8    14    28    1
     9    28    29    1
    10    14    15   ar
    11    15     1    1
    12     1     2   ar
    13     2     3    2
    14     2     4   ar
    15     4     5   ar
    16     5     6   ar
    17     6     7   ar
    18     7     8   ar
    19     8    30    1
    20    30    31    2
    21    30    32    2
    22    30    33    1
    23    33    35    1
    24    35    36   ar
    25    36    37   ar
    26    37    38   ar
    27    38    39   ar
    28    39    40   ar
    29     8     9   ar
    30     9    10   ar
    31    10    11   ar
    32    15    16   ar
    33    16    17   ar
    34    17    18    1
    35    21    22   ar
    36    22    23   ar
    37    23    24   ar
    38    24    25    1
    39    24    19   ar
    40    17    12   ar
    41    11     1   ar
    42    11     6   ar
    43    40    35   ar
    44    33    34    1
@<TRIPOS>MOLECULE
*****
 40 44 0 0 0
SMALL
GASTEIGER

@<TRIPOS>ATOM
      1 N          64.0003   89.6408   15.2871 N.ar    1  UNL1       -0.2715
      2 C          63.5023   90.2637   16.5575 C.ar    1  UNL1        0.2649
      3 O          63.5552   91.7524   16.7339 O.2     1  UNL1       -0.2666
      4 C          62.9514   89.3980   17.6516 C.ar    1  UNL1        0.0611
      5 C          62.8985   87.9094   17.4753 C.ar    1  UNL1        0.0064
      6 C          63.3965   87.2864   16.2048 C.ar    1  UNL1        0.0177
      7 C          63.3436   85.7978   16.0285 C.ar    1  UNL1        0.0216
      8 C          63.8416   85.1749   14.7581 C.ar    1  UNL1        0.1253
      9 C          64.3925   86.0406   13.6640 C.ar    1  UNL1        0.0217
     10 C          64.4454   87.5292   13.8403 C.ar    1  UNL1        0.0190
     11 C          63.9474   88.1521   15.1107 C.ar    1  UNL1        0.0670
     12 C          65.6531   92.2380   12.0049 C.ar    1  UNL1        0.0307
     13 C          66.3845   92.1215   13.3092 C.ar    1  UNL1        0.0406
     14 C          65.8336   91.2557   14.4033 C.ar    1  UNL1        0.1549
     15 C          64.5512   90.5066   14.1930 C.ar    1  UNL1        0.1029
     16 C          63.8197   90.6231   12.8886 C.ar    1  UNL1        0.0503
     17 C          64.3706   91.4888   11.7946 C.ar    1  UNL1        0.1417
     18 F          63.6392   91.6054   10.4902 F       1  UNL1       -0.2041
     19 C          66.1531   95.3179    9.5524 C.ar    1  UNL1        0.1492
     20 C          65.6021   94.4521   10.6464 C.ar    1  UNL1        0.0378
     21 C          66.2040   93.1038   10.9108 C.ar    1  UNL1        0.0053
     22 C          67.3567   92.6212   10.0811 C.ar    1  UNL1        0.0011
     23 C          67.9076   93.4869    8.9871 C.ar    1  UNL1        0.0145
     24 C          67.3058   94.8352    8.7227 C.ar    1  UNL1        0.0915
     25 CL         67.8567   95.7010    7.6286 Cl      1  UNL1       -0.0791
     26 C          64.0653   96.8534    9.3703 C.3     1  UNL1        0.2525
     27 O          65.5513   96.6661    9.2880 O.3     1  UNL1       -0.4706
     28 O          66.5651   91.1392   15.7077 O.3     1  UNL1       -0.4700
     29 C          67.6095   92.1513   16.0749 C.3     1  UNL1        0.2525
     30 S          63.7887   83.6862   14.5817 S.O2    1  UNL1        0.0758
     31 O          65.2740   83.6580   14.3745 O.2     1  UNL1       -0.1499
     32 O          62.3033   83.7143   14.7889 O.2     1  UNL1       -0.1499
     33 N          63.7358   82.1975   14.4053 N.pl3   1  UNL1       -0.1835
     34 H          63.8611   81.6051   15.1816 H       1  UNL1        0.1767
     35 C          63.4920   81.6115   13.0462 C.ar    1  UNL1        0.2360
     36 N          62.8744   80.2508   12.9159 N.ar    1  UNL1       -0.2110
     37 C          62.6306   79.6648   11.5568 C.ar    1  UNL1        0.1035
     38 C          63.0046   80.4395   10.3280 C.ar    1  UNL1        0.0414
     39 C          63.6223   81.8002   10.4583 C.ar    1  UNL1        0.1035
     40 N          63.8660   82.3861   11.8173 N.ar    1  UNL1       -0.2110
@<TRIPOS>BOND
     1    26    27    1
     2    27    19    1
     3    19    20   ar
     4    20    21   ar
     5    21    12    1
     6    12    13   ar
     7    13    14   ar
     8    14    28    1
     9    28    29    1
    10    14    15   ar
    11    15     1    1
    12     1     2   ar
    13     2     3    2
    14     2     4   ar
    15     4     5   ar
    16     5     6   ar
    17     6     7   ar
    18     7     8   ar
    19     8    30    1
    20    30    31    2
    21    30    32    2
    22    30    33    1
    23    33    35    1
    24    35    36   ar
    25    36    37   ar
    26    37    38   ar
    27    38    39   ar
    28    39    40   ar
    29     8     9   ar
    30     9    10   ar
    31    10    11   ar
    32    15    16   ar
    33    16    17   ar
    34    17    18    1
    35    21    22   ar
    36    22    23   ar
    37    23    24   ar
    38    24    25    1
    39    24    19   ar
    40    17    12   ar
    41    11     1   ar
    42    11     6   ar
    43    40    35   ar
    44    33    34    1
@<TRIPOS>MOLECULE
*****
 40 44 0 0 0
SMALL
GASTEIGER

@<TRIPOS>ATOM
      1 N          63.9147   89.2745   15.4067 N.ar    1  UNL1       -0.2715
      2 C          63.3414   89.7657   16.7028 C.ar    1  UNL1        0.2649
      3 O          63.3050   91.2361   16.9974 O.2     1  UNL1       -0.2666
      4 C          62.8045   88.7866   17.7044 C.ar    1  UNL1        0.0611
      5 C          62.8410   87.3163   17.4099 C.ar    1  UNL1        0.0064
      6 C          63.4143   86.8250   16.1137 C.ar    1  UNL1        0.0177
      7 C          63.4507   85.3547   15.8192 C.ar    1  UNL1        0.0216
      8 C          64.0240   84.8635   14.5230 C.ar    1  UNL1        0.1253
      9 C          64.5608   85.8425   13.5214 C.ar    1  UNL1        0.0217
     10 C          64.5244   87.3129   13.8160 C.ar    1  UNL1        0.0190
     11 C          63.9511   87.8041   15.1121 C.ar    1  UNL1        0.0670
     12 C          65.5253   92.2117   12.4019 C.ar    1  UNL1        0.0307
     13 C          64.1980   91.5528   12.1696 C.ar    1  UNL1        0.0406
     14 C          63.6611   90.5737   13.1712 C.ar    1  UNL1        0.1549
     15 C          64.4516   90.2536   14.4051 C.ar    1  UNL1        0.1029
     16 C          65.7790   90.9125   14.6375 C.ar    1  UNL1        0.0503
     17 C          66.3158   91.8916   13.6359 C.ar    1  UNL1        0.1417
     18 F          67.6431   92.5504   13.8683 F       1  UNL1       -0.2041
     19 C          67.4582   93.6898    9.2667 C.ar    1  UNL1        0.1492
     20 C          66.9213   92.7107   10.2683 C.ar    1  UNL1        0.0378
     21 C          66.0621   93.1908   11.4004 C.ar    1  UNL1        0.0053
     22 C          65.7399   94.6499   11.5308 C.ar    1  UNL1        0.0011
     23 C          66.2768   95.6290   10.5292 C.ar    1  UNL1        0.0145
     24 C          67.1359   95.1490    9.3972 C.ar    1  UNL1        0.0915
     25 CL         67.6727   96.1280    8.3956 Cl      1  UNL1       -0.0791
     26 C          69.0770   91.9228    8.2634 C.3     1  UNL1        0.2525
     27 O          68.3173   93.2097    8.1348 O.3     1  UNL1       -0.4706
     28 O          62.3337   89.9148   12.9388 O.3     1  UNL1       -0.4700
     29 C          62.1027   89.1121   11.6929 C.3     1  UNL1        0.2525
     30 S          64.0604   83.3931   14.2284 S.O2    1  UNL1        0.0758
     31 O          64.1512   83.1012   15.6969 O.2     1  UNL1       -0.1499
     32 O          63.9696   83.6850   12.7600 O.2     1  UNL1       -0.1499
     33 N          64.0969   81.9228   13.9339 N.pl3   1  UNL1       -0.1835
     34 H          64.9559   81.4790   13.7485 H       1  UNL1        0.1767
     35 C          62.8244   81.1285   13.9218 C.ar    1  UNL1        0.2360
     36 N          62.8497   79.6773   13.5430 N.ar    1  UNL1       -0.2110
     37 C          61.5773   78.8832   13.5309 C.ar    1  UNL1        0.1035
     38 C          60.2796   79.5401   13.8976 C.ar    1  UNL1        0.0414
     39 C          60.2543   80.9913   14.2763 C.ar    1  UNL1        0.1035
     40 N          61.5267   81.7854   14.2884 N.ar    1  UNL1       -0.2110
@<TRIPOS>BOND
     1    26    27    1
     2    27    19    1
     3    19    20   ar
     4    20    21   ar
     5    21    12    1
     6    12    13   ar
     7    13    14   ar
     8    14    28    1
     9    28    29    1
    10    14    15   ar
    11    15     1    1
    12     1     2   ar
    13     2     3    2
    14     2     4   ar
    15     4     5   ar
    16     5     6   ar
    17     6     7   ar
    18     7     8   ar
    19     8    30    1
    20    30    31    2
    21    30    32    2
    22    30    33    1
    23    33    35    1
    24    35    36   ar
    25    36    37   ar
    26    37    38   ar
    27    38    39   ar
    28    39    40   ar
    29     8     9   ar
    30     9    10   ar
    31    10    11   ar
    32    15    16   ar
    33    16    17   ar
    34    17    18    1
    35    21    22   ar
    36    22    23   ar
    37    23    24   ar
    38    24    25    1
    39    24    19   ar
    40    17    12   ar
    41    11     1   ar
    42    11     6   ar
    43    40    35   ar
    44    33    34    1
