@<TRIPOS>MOLECULE
*****
 31 33 0 0 0
SMALL
GASTEIGER

@<TRIPOS>ATOM
      1 C          64.4112   89.7652   14.1529 C.ar    1  UNL1        0.0942
      2 C          65.5482   90.5501   14.7371 C.ar    1  UNL1        0.1078
      3 N          65.9643   91.8475   14.1098 N.ar    1  UNL1       -0.2119
      4 C          65.2436   92.3601   12.8983 C.ar    1  UNL1        0.2206
      5 N          64.1067   91.5752   12.3140 N.ar    1  UNL1       -0.2094
      6 C          63.6905   90.2777   12.9414 C.ar    1  UNL1        0.1613
      7 O          63.2323   88.4699   16.0718 O.2     1  UNL1       -0.2700
      8 C          63.9950   88.4679   14.7802 C.2     1  UNL1        0.2490
      9 N          64.3415   87.1683   14.1159 N.am    1  UNL1       -0.2968
     10 H          64.8421   87.1670   13.2681 H       1  UNL1        0.1501
     11 C          63.9253   85.8710   14.7432 C.3     1  UNL1        0.1166
     12 C          63.6372   84.6787   13.8796 C.ar    1  UNL1       -0.0024
     13 C          63.9308   83.2976   14.3858 C.ar    1  UNL1       -0.0003
     14 C          63.6427   82.1054   13.5223 C.ar    1  UNL1        0.0294
     15 C          63.0610   82.2944   12.1526 C.ar    1  UNL1        0.1401
     16 F          62.7729   81.1021   11.2891 F       1  UNL1       -0.2042
     17 C          62.7675   83.6755   11.6465 C.ar    1  UNL1        0.0294
     18 C          63.0556   84.8677   12.5100 C.ar    1  UNL1       -0.0003
     19 C          62.5535   89.4928   12.3572 C.3     1  UNL1        0.4351
     20 F          61.4166   88.7079   11.7729 F       1  UNL1       -0.1644
     21 F          61.6314   90.0528   13.3993 F       1  UNL1       -0.1644
     22 F          63.4757   88.9328   11.3150 F       1  UNL1       -0.1644
     23 N          65.6598   93.6574   12.2710 N.pl3   1  UNL1       -0.2825
     24 H          65.3633   94.5108   12.6622 H       1  UNL1        0.1551
     25 C          66.5277   93.6546   11.0476 C.ar    1  UNL1        0.0513
     26 C          67.3167   92.4299   10.6906 C.ar    1  UNL1        0.0147
     27 C          68.1846   92.4271    9.4672 C.ar    1  UNL1        0.0021
     28 C          68.2637   93.6490    8.6009 C.ar    1  UNL1        0.0115
     29 C          67.4747   94.8738    8.9579 C.ar    1  UNL1        0.0589
     30 CL         67.5537   96.0958    8.0915 Cl      1  UNL1       -0.0822
     31 C          66.6068   94.8766   10.1813 C.ar    1  UNL1        0.0261
@<TRIPOS>BOND
     1     7     8    2
     2     8     9   am
     3     9    11    1
     4    11    12    1
     5    12    13   ar
     6    13    14   ar
     7    14    15   ar
     8    15    16    1
     9    15    17   ar
    10    17    18   ar
    11     8     1    1
    12     1     2   ar
    13     2     3   ar
    14     3     4   ar
    15     4    23    1
    16    23    25    1
    17    25    26   ar
    18    26    27   ar
    19    27    28   ar
    20    28    29   ar
    21    29    30    1
    22    29    31   ar
    23     4     5   ar
    24     5     6   ar
    25     6    19    1
    26    19    20    1
    27    19    21    1
    28    19    22    1
    29    18    12   ar
    30     6     1   ar
    31    31    25   ar
    32     9    10    1
    33    23    24    1
@<TRIPOS>MOLECULE
*****
 31 33 0 0 0
SMALL
GASTEIGER

@<TRIPOS>ATOM
      1 C          63.0478   89.6819   12.0377 C.ar    1  UNL1        0.0942
      2 C          63.1876   90.5825   10.8464 C.ar    1  UNL1        0.1078
      3 N          64.0313   91.8195   10.9362 N.ar    1  UNL1       -0.2119
      4 C          64.7351   92.1559   12.2175 C.ar    1  UNL1        0.2206
      5 N          64.5953   91.2553   13.4088 N.ar    1  UNL1       -0.2094
      6 C          63.7516   90.0182   13.3189 C.ar    1  UNL1        0.1613
      7 O          60.7090   88.5511   12.0035 O.2     1  UNL1       -0.2700
      8 C          62.2042   88.4449   11.9479 C.2     1  UNL1        0.2490
      9 N          62.8558   87.1016   11.8023 N.am    1  UNL1       -0.2968
     10 H          63.8372   87.0319   11.7658 H       1  UNL1        0.1501
     11 C          62.0122   85.8646   11.7125 C.3     1  UNL1        0.1166
     12 C          62.5207   84.5679   12.2693 C.ar    1  UNL1       -0.0024
     13 C          62.8649   83.4382   11.3445 C.ar    1  UNL1       -0.0003
     14 C          63.3734   82.1415   11.9014 C.ar    1  UNL1        0.0294
     15 C          63.5377   81.9746   13.3830 C.ar    1  UNL1        0.1401
     16 F          64.0462   80.6778   13.9398 F       1  UNL1       -0.2042
     17 C          63.1934   83.1043   14.3077 C.ar    1  UNL1        0.0294
     18 C          62.6849   84.4009   13.7509 C.ar    1  UNL1       -0.0003
     19 C          63.6118   89.1176   14.5102 C.3     1  UNL1        0.4351
     20 F          63.4720   88.2169   15.7016 F       1  UNL1       -0.1644
     21 F          62.4755   89.9582   15.0124 F       1  UNL1       -0.1644
     22 F          64.7481   88.2770   14.0081 F       1  UNL1       -0.1644
     23 N          65.5787   93.3929   12.3073 N.pl3   1  UNL1       -0.2825
     24 H          65.5962   93.9174   13.1403 H       1  UNL1        0.1551
     25 C          66.3958   93.8308   11.1281 C.ar    1  UNL1        0.0513
     26 C          66.3666   95.2639   10.6860 C.ar    1  UNL1        0.0147
     27 C          67.1837   95.7017    9.5067 C.ar    1  UNL1        0.0021
     28 C          68.0299   94.7066    8.7695 C.ar    1  UNL1        0.0115
     29 C          68.0591   93.2735    9.2116 C.ar    1  UNL1        0.0589
     30 CL         68.9053   92.2783    8.4744 Cl      1  UNL1       -0.0822
     31 C          67.2420   92.8356   10.3908 C.ar    1  UNL1        0.0261
@<TRIPOS>BOND
     1     7     8    2
     2     8     9   am
     3     9    11    1
     4    11    12    1
     5    12    13   ar
     6    13    14   ar
     7    14    15   ar
     8    15    16    1
     9    15    17   ar
    10    17    18   ar
    11     8     1    1
    12     1     2   ar
    13     2     3   ar
    14     3     4   ar
    15     4    23    1
    16    23    25    1
    17    25    26   ar
    18    26    27   ar
    19    27    28   ar
    20    28    29   ar
    21    29    30    1
    22    29    31   ar
    23     4     5   ar
    24     5     6   ar
    25     6    19    1
    26    19    20    1
    27    19    21    1
    28    19    22    1
    29    18    12   ar
    30     6     1   ar
    31    31    25   ar
    32     9    10    1
    33    23    24    1
@<TRIPOS>MOLECULE
*****
 31 33 0 0 0
SMALL
GASTEIGER

@<TRIPOS>ATOM
      1 C          63.5660   89.9600   12.1108 C.ar    1  UNL1        0.0942
      2 C          63.8159   90.8759   10.9495 C.ar    1  UNL1        0.1078
      3 N          64.5672   92.1580   11.1537 N.ar    1  UNL1       -0.2119
      4 C          65.0684   92.5243   12.5192 C.ar    1  UNL1        0.2206
      5 N          64.8185   91.6084   13.6805 N.ar    1  UNL1       -0.2094
      6 C          64.0672   90.3262   13.4763 C.ar    1  UNL1        0.1613
      7 O          63.2075   87.4485   12.6712 O.2     1  UNL1       -0.2700
      8 C          62.8147   88.6778   11.9066 C.2     1  UNL1        0.2490
      9 N          61.6707   88.6249   10.9378 N.am    1  UNL1       -0.2968
     10 H          61.4130   89.4318   10.4359 H       1  UNL1        0.1501
     11 C          60.9195   87.3428   10.7336 C.3     1  UNL1        0.1166
     12 C          61.0989   86.5622    9.4652 C.ar    1  UNL1       -0.0024
     13 C          62.4130   85.9017    9.1706 C.ar    1  UNL1       -0.0003
     14 C          62.5923   85.1212    7.9023 C.ar    1  UNL1        0.0294
     15 C          61.4576   85.0012    6.9287 C.ar    1  UNL1        0.1401
     16 F          61.6370   84.2206    5.6603 F       1  UNL1       -0.2042
     17 C          60.1435   85.6617    7.2233 C.ar    1  UNL1        0.0294
     18 C          59.9642   86.4422    8.4916 C.ar    1  UNL1       -0.0003
     19 C          63.8172   89.4102   14.6375 C.3     1  UNL1        0.4351
     20 F          63.5672   88.4943   15.7988 F       1  UNL1       -0.1644
     21 F          65.1536   88.7656   14.4168 F       1  UNL1       -0.1644
     22 F          62.4809   90.0548   14.8583 F       1  UNL1       -0.1644
     23 N          65.8197   93.8064   12.7234 N.pl3   1  UNL1       -0.2825
     24 H          65.9901   94.1373   13.6349 H       1  UNL1        0.1551
     25 C          66.3113   94.5845   11.5390 C.ar    1  UNL1        0.0513
     26 C          66.1656   96.0771   11.5091 C.ar    1  UNL1        0.0147
     27 C          66.6572   96.8551   10.3247 C.ar    1  UNL1        0.0021
     28 C          67.2944   96.1406    9.1700 C.ar    1  UNL1        0.0115
     29 C          67.4401   94.6480    9.1998 C.ar    1  UNL1        0.0589
     30 CL         68.0774   93.9334    8.0451 Cl      1  UNL1       -0.0822
     31 C          66.9485   93.8700   10.3843 C.ar    1  UNL1        0.0261
@<TRIPOS>BOND
     1     7     8    2
     2     8     9   am
     3     9    11    1
     4    11    12    1
     5    12    13   ar
     6    13    14   ar
     7    14    15   ar
     8    15    16    1
     9    15    17   ar
    10    17    18   ar
    11     8     1    1
    12     1     2   ar
    13     2     3   ar
    14     3     4   ar
    15     4    23    1
    16    23    25    1
    17    25    26   ar
    18    26    27   ar
    19    27    28   ar
    20    28    29   ar
    21    29    30    1
    22    29    31   ar
    23     4     5   ar
    24     5     6   ar
    25     6    19    1
    26    19    20    1
    27    19    21    1
    28    19    22    1
    29    18    12   ar
    30     6     1   ar
    31    31    25   ar
    32     9    10    1
    33    23    24    1
@<TRIPOS>MOLECULE
*****
 31 33 0 0 0
SMALL
GASTEIGER

@<TRIPOS>ATOM
      1 C          62.9631   89.1508   12.1420 C.ar    1  UNL1        0.0942
      2 C          63.8634   89.3136   13.3307 C.ar    1  UNL1        0.1078
      3 N          64.6517   90.5774   13.5071 N.ar    1  UNL1       -0.2119
      4 C          64.5397   91.6787   12.4947 C.ar    1  UNL1        0.2206
      5 N          63.6395   91.5159   11.3060 N.ar    1  UNL1       -0.2094
      6 C          62.8511   90.2519   11.1297 C.ar    1  UNL1        0.1613
      7 O          60.6843   87.9483   11.8089 O.2     1  UNL1       -0.2700
      8 C          62.1748   87.8869   11.9657 C.2     1  UNL1        0.2490
      9 N          62.8771   86.5615   11.9462 N.am    1  UNL1       -0.2968
     10 H          63.8553   86.5212   12.0491 H       1  UNL1        0.1501
     11 C          62.0888   85.2976   11.7699 C.3     1  UNL1        0.1166
     12 C          62.5704   84.0204   12.3918 C.ar    1  UNL1       -0.0024
     13 C          62.8276   83.9554   13.8681 C.ar    1  UNL1       -0.0003
     14 C          63.3092   82.6782   14.4900 C.ar    1  UNL1        0.0294
     15 C          63.5335   81.4659   13.6355 C.ar    1  UNL1        0.1401
     16 F          64.0151   80.1886   14.2574 F       1  UNL1       -0.2042
     17 C          63.2762   81.5309   12.1592 C.ar    1  UNL1        0.0294
     18 C          62.7947   82.8081   11.5373 C.ar    1  UNL1       -0.0003
     19 C          61.9508   90.0892    9.9410 C.3     1  UNL1        0.4351
     20 F          61.0505   89.9264    8.7523 F       1  UNL1       -0.1644
     21 F          60.9662   91.0386   10.5567 F       1  UNL1       -0.1644
     22 F          62.9354   89.1397    9.3253 F       1  UNL1       -0.1644
     23 N          65.3280   92.9425   12.6710 N.pl3   1  UNL1       -0.2825
     24 H          65.3134   93.4154   13.5344 H       1  UNL1        0.1551
     25 C          66.1386   93.4860   11.5318 C.ar    1  UNL1        0.0513
     26 C          66.0812   94.9479   11.2008 C.ar    1  UNL1        0.0147
     27 C          66.8917   95.4914   10.0617 C.ar    1  UNL1        0.0021
     28 C          67.7597   94.5730    9.2536 C.ar    1  UNL1        0.0115
     29 C          67.8172   93.1111    9.5846 C.ar    1  UNL1        0.0589
     30 CL         68.6852   92.1927    8.7764 Cl      1  UNL1       -0.0822
     31 C          67.0066   92.5676   10.7237 C.ar    1  UNL1        0.0261
@<TRIPOS>BOND
     1     7     8    2
     2     8     9   am
     3     9    11    1
     4    11    12    1
     5    12    13   ar
     6    13    14   ar
     7    14    15   ar
     8    15    16    1
     9    15    17   ar
    10    17    18   ar
    11     8     1    1
    12     1     2   ar
    13     2     3   ar
    14     3     4   ar
    15     4    23    1
    16    23    25    1
    17    25    26   ar
    18    26    27   ar
    19    27    28   ar
    20    28    29   ar
    21    29    30    1
    22    29    31   ar
    23     4     5   ar
    24     5     6   ar
    25     6    19    1
    26    19    20    1
    27    19    21    1
    28    19    22    1
    29    18    12   ar
    30     6     1   ar
    31    31    25   ar
    32     9    10    1
    33    23    24    1
@<TRIPOS>MOLECULE
*****
 31 33 0 0 0
SMALL
GASTEIGER

@<TRIPOS>ATOM
      1 C          63.7756   89.6524   12.8857 C.ar    1  UNL1        0.0942
      2 C          64.0102   88.4721   13.7812 C.ar    1  UNL1        0.1078
      3 N          63.3686   87.1532   13.4673 N.ar    1  UNL1       -0.2119
      4 C          62.4923   87.0144   12.2577 C.ar    1  UNL1        0.2206
      5 N          62.2577   88.1947   11.3621 N.ar    1  UNL1       -0.2094
      6 C          62.8994   89.5137   11.6761 C.ar    1  UNL1        0.1613
      7 O          64.1607   91.6347   14.5203 O.2     1  UNL1       -0.2700
      8 C          64.4173   90.9713   13.1996 C.2     1  UNL1        0.2490
      9 N          65.3155   91.6270   12.1929 N.am    1  UNL1       -0.2968
     10 H          65.4839   91.1916   11.3261 H       1  UNL1        0.1501
     11 C          65.9571   92.9459   12.5069 C.3     1  UNL1        0.1166
     12 C          66.4122   93.8425   11.3936 C.ar    1  UNL1       -0.0024
     13 C          66.1647   95.3199   11.4717 C.ar    1  UNL1       -0.0003
     14 C          66.6197   96.2164   10.3586 C.ar    1  UNL1        0.0294
     15 C          67.3222   95.6355    9.1673 C.ar    1  UNL1        0.1401
     16 F          67.7773   96.5321    8.0541 F       1  UNL1       -0.2042
     17 C          67.5697   94.1582    9.0892 C.ar    1  UNL1        0.0294
     18 C          67.1147   93.2617   10.2024 C.ar    1  UNL1       -0.0003
     19 C          62.6649   90.6939   10.7806 C.3     1  UNL1        0.4351
     20 F          62.4303   91.8741    9.8850 F       1  UNL1       -0.1644
     21 F          63.8262   90.2774    9.9275 F       1  UNL1       -0.1644
     22 F          61.5035   91.1104   11.6337 F       1  UNL1       -0.1644
     23 N          61.8507   85.6955   11.9437 N.pl3   1  UNL1       -0.2825
     24 H          60.8695   85.6208   11.9108 H       1  UNL1        0.1551
     25 C          62.7038   84.4903   11.6799 C.ar    1  UNL1        0.0513
     26 C          63.3945   84.3352   10.3575 C.ar    1  UNL1        0.0147
     27 C          64.2477   83.1300   10.0938 C.ar    1  UNL1        0.0021
     28 C          64.4102   82.0798   11.1524 C.ar    1  UNL1        0.0115
     29 C          63.7195   82.2349   12.4748 C.ar    1  UNL1        0.0589
     30 CL         63.8819   81.1848   13.5336 Cl      1  UNL1       -0.0822
     31 C          62.8663   83.4401   12.7386 C.ar    1  UNL1        0.0261
@<TRIPOS>BOND
     1     7     8    2
     2     8     9   am
     3     9    11    1
     4    11    12    1
     5    12    13   ar
     6    13    14   ar
     7    14    15   ar
     8    15    16    1
     9    15    17   ar
    10    17    18   ar
    11     8     1    1
    12     1     2   ar
    13     2     3   ar
    14     3     4   ar
    15     4    23    1
    16    23    25    1
    17    25    26   ar
    18    26    27   ar
    19    27    28   ar
    20    28    29   ar
    21    29    30    1
    22    29    31   ar
    23     4     5   ar
    24     5     6   ar
    25     6    19    1
    26    19    20    1
    27    19    21    1
    28    19    22    1
    29    18    12   ar
    30     6     1   ar
    31    31    25   ar
    32     9    10    1
    33    23    24    1
@<TRIPOS>MOLECULE
*****
 31 33 0 0 0
SMALL
GASTEIGER

@<TRIPOS>ATOM
      1 C          64.0346   89.6176   13.5679 C.ar    1  UNL1        0.0942
      2 C          64.5121   88.5901   14.5509 C.ar    1  UNL1        0.1078
      3 N          64.0787   87.1608   14.4119 N.ar    1  UNL1       -0.2119
      4 C          63.1677   86.7590   13.2899 C.ar    1  UNL1        0.2206
      5 N          62.6902   87.7866   12.3069 N.ar    1  UNL1       -0.2094
      6 C          63.1237   89.2159   12.4460 C.ar    1  UNL1        0.1613
      7 O          63.9537   91.8794   14.8437 O.2     1  UNL1       -0.2700
      8 C          64.4680   91.0469   13.7069 C.2     1  UNL1        0.2490
      9 N          65.4157   91.6437   12.7090 N.am    1  UNL1       -0.2968
     10 H          65.7533   91.0973   11.9629 H       1  UNL1        0.1501
     11 C          65.8491   93.0729   12.8480 C.3     1  UNL1        0.1166
     12 C          66.3431   93.8269   11.6490 C.ar    1  UNL1       -0.0024
     13 C          66.9933   93.0904   10.5155 C.ar    1  UNL1       -0.0003
     14 C          67.4872   93.8444    9.3165 C.ar    1  UNL1        0.0294
     15 C          67.3310   95.3348    9.2511 C.ar    1  UNL1        0.1401
     16 F          67.8250   96.0887    8.0520 F       1  UNL1       -0.2042
     17 C          66.6808   96.0712   10.3846 C.ar    1  UNL1        0.0294
     18 C          66.1869   95.3173   11.5835 C.ar    1  UNL1       -0.0003
     19 C          62.6461   90.2434   11.4630 C.3     1  UNL1        0.4351
     20 F          62.1686   91.2709   10.4801 F       1  UNL1       -0.1644
     21 F          61.4305   90.4863   12.3076 F       1  UNL1       -0.1644
     22 F          63.8618   90.0004   10.6185 F       1  UNL1       -0.1644
     23 N          62.7343   85.3298   13.1509 N.pl3   1  UNL1       -0.2825
     24 H          62.1455   84.9258   13.8287 H       1  UNL1        0.1551
     25 C          63.1980   84.5160   11.9793 C.ar    1  UNL1        0.0513
     26 C          63.9737   83.2520   12.2040 C.ar    1  UNL1        0.0147
     27 C          64.4374   82.4382   11.0324 C.ar    1  UNL1        0.0021
     28 C          64.1254   82.8884    9.6360 C.ar    1  UNL1        0.0115
     29 C          63.3498   84.1524    9.4113 C.ar    1  UNL1        0.0589
     30 CL         63.0378   84.6027    8.0148 Cl      1  UNL1       -0.0822
     31 C          62.8861   84.9662   10.5829 C.ar    1  UNL1        0.0261
@<TRIPOS>BOND
     1     7     8    2
     2     8     9   am
     3     9    11    1
     4    11    12    1
     5    12    13   ar
     6    13    14   ar
     7    14    15   ar
     8    15    16    1
     9    15    17   ar
    10    17    18   ar
    11     8     1    1
    12     1     2   ar
    13     2     3   ar
    14     3     4   ar
    15     4    23    1
    16    23    25    1
    17    25    26   ar
    18    26    27   ar
    19    27    28   ar
    20    28    29   ar
    21    29    30    1
    22    29    31   ar
    23     4     5   ar
    24     5     6   ar
    25     6    19    1
    26    19    20    1
    27    19    21    1
    28    19    22    1
    29    18    12   ar
    30     6     1   ar
    31    31    25   ar
    32     9    10    1
    33    23    24    1
@<TRIPOS>MOLECULE
*****
 31 33 0 0 0
SMALL
GASTEIGER

@<TRIPOS>ATOM
      1 C          63.6021   86.3681   13.5356 C.ar    1  UNL1        0.0942
      2 C          64.2085   87.3469   14.4969 C.ar    1  UNL1        0.1078
      3 N          64.0824   88.8204   14.2464 N.ar    1  UNL1       -0.2119
      4 C          63.3499   89.3152   13.0344 C.ar    1  UNL1        0.2206
      5 N          62.7436   88.3363   12.0730 N.ar    1  UNL1       -0.2094
      6 C          62.8697   86.8627   12.3237 C.ar    1  UNL1        0.1613
      7 O          65.0793   84.2433   13.7662 O.2     1  UNL1       -0.2700
      8 C          63.7282   84.8946   13.7862 C.2     1  UNL1        0.2490
      9 N          62.5032   84.0722   14.0567 N.am    1  UNL1       -0.2968
     10 H          61.6164   84.4997   14.0698 H       1  UNL1        0.1501
     11 C          62.6293   82.5987   14.3073 C.3     1  UNL1        0.1166
     12 C          62.7060   81.6453   13.1518 C.ar    1  UNL1       -0.0024
     13 C          63.0557   82.1514   11.7838 C.ar    1  UNL1       -0.0003
     14 C          63.1324   81.1980   10.6284 C.ar    1  UNL1        0.0294
     15 C          62.8594   79.7384   10.8410 C.ar    1  UNL1        0.1401
     16 F          62.9362   78.7850    9.6854 F       1  UNL1       -0.2042
     17 C          62.5098   79.2323   12.2090 C.ar    1  UNL1        0.0294
     18 C          62.4331   80.1857   13.3644 C.ar    1  UNL1       -0.0003
     19 C          62.2634   85.8839   11.3623 C.3     1  UNL1        0.4351
     20 F          61.6570   84.9050   10.4010 F       1  UNL1       -0.1644
     21 F          60.9119   86.4910   11.5966 F       1  UNL1       -0.1644
     22 F          63.6149   85.2768   11.1281 F       1  UNL1       -0.1644
     23 N          63.2238   90.7887   12.7838 N.pl3   1  UNL1       -0.2825
     24 H          62.3440   91.2256   12.8492 H       1  UNL1        0.1551
     25 C          64.4382   91.5965   12.4336 C.ar    1  UNL1        0.0513
     26 C          64.6599   92.0426   11.0188 C.ar    1  UNL1        0.0147
     27 C          65.8743   92.8504   10.6686 C.ar    1  UNL1        0.0021
     28 C          66.8670   93.2122   11.7332 C.ar    1  UNL1        0.0115
     29 C          66.6453   92.7662   13.1481 C.ar    1  UNL1        0.0589
     30 CL         67.6381   93.1280   14.2128 Cl      1  UNL1       -0.0822
     31 C          65.4310   91.9583   13.4983 C.ar    1  UNL1        0.0261
@<TRIPOS>BOND
     1     7     8    2
     2     8     9   am
     3     9    11    1
     4    11    12    1
     5    12    13   ar
     6    13    14   ar
     7    14    15   ar
     8    15    16    1
     9    15    17   ar
    10    17    18   ar
    11     8     1    1
    12     1     2   ar
    13     2     3   ar
    14     3     4   ar
    15     4    23    1
    16    23    25    1
    17    25    26   ar
    18    26    27   ar
    19    27    28   ar
    20    28    29   ar
    21    29    30    1
    22    29    31   ar
    23     4     5   ar
    24     5     6   ar
    25     6    19    1
    26    19    20    1
    27    19    21    1
    28    19    22    1
    29    18    12   ar
    30     6     1   ar
    31    31    25   ar
    32     9    10    1
    33    23    24    1
@<TRIPOS>MOLECULE
*****
 31 33 0 0 0
SMALL
GASTEIGER

@<TRIPOS>ATOM
      1 C          63.5665   89.8627   12.0846 C.ar    1  UNL1        0.0942
      2 C          63.6894   90.6056   10.7873 C.ar    1  UNL1        0.1078
      3 N          64.3264   91.9632   10.7579 N.ar    1  UNL1       -0.2119
      4 C          64.8405   92.5781   12.0259 C.ar    1  UNL1        0.2206
      5 N          64.7177   91.8352   13.3232 N.ar    1  UNL1       -0.2094
      6 C          64.0806   90.4775   13.3525 C.ar    1  UNL1        0.1613
      7 O          63.4032   87.4754   13.0967 O.2     1  UNL1       -0.2700
      8 C          62.9295   88.5050   12.1140 C.2     1  UNL1        0.2490
      9 N          61.8188   88.1769   11.1608 N.am    1  UNL1       -0.2968
     10 H          61.5079   88.8526   10.5158 H       1  UNL1        0.1501
     11 C          61.1818   86.8192   11.1902 C.3     1  UNL1        0.1166
     12 C          62.0022   85.5991   10.8926 C.ar    1  UNL1       -0.0024
     13 C          62.2178   84.5628   11.9554 C.ar    1  UNL1       -0.0003
     14 C          63.0382   83.3429   11.6579 C.ar    1  UNL1        0.0294
     15 C          63.6431   83.1593   10.2976 C.ar    1  UNL1        0.1401
     16 F          64.4635   81.9392   10.0000 F       1  UNL1       -0.2042
     17 C          63.4275   84.1956    9.2348 C.ar    1  UNL1        0.0294
     18 C          62.6071   85.4155    9.5323 C.ar    1  UNL1       -0.0003
     19 C          63.9577   89.7346   14.6499 C.3     1  UNL1        0.4351
     20 F          63.8349   88.9917   15.9472 F       1  UNL1       -0.1644
     21 F          62.5063   90.1057   14.7249 F       1  UNL1       -0.1644
     22 F          65.4092   89.3635   14.5748 F       1  UNL1       -0.1644
     23 N          65.4775   93.9358   11.9965 N.pl3   1  UNL1       -0.2825
     24 H          65.4636   94.5036   12.8006 H       1  UNL1        0.1551
     25 C          66.1357   94.4284   10.7419 C.ar    1  UNL1        0.0513
     26 C          67.5121   93.9538   10.3809 C.ar    1  UNL1        0.0147
     27 C          68.1703   94.4464    9.1263 C.ar    1  UNL1        0.0021
     28 C          67.4522   95.4137    8.2326 C.ar    1  UNL1        0.0115
     29 C          66.0758   95.8883    8.5936 C.ar    1  UNL1        0.0589
     30 CL         65.3576   96.8556    7.6999 Cl      1  UNL1       -0.0822
     31 C          65.4176   95.3957    9.8482 C.ar    1  UNL1        0.0261
@<TRIPOS>BOND
     1     7     8    2
     2     8     9   am
     3     9    11    1
     4    11    12    1
     5    12    13   ar
     6    13    14   ar
     7    14    15   ar
     8    15    16    1
     9    15    17   ar
    10    17    18   ar
    11     8     1    1
    12     1     2   ar
    13     2     3   ar
    14     3     4   ar
    15     4    23    1
    16    23    25    1
    17    25    26   ar
    18    26    27   ar
    19    27    28   ar
    20    28    29   ar
    21    29    30    1
    22    29    31   ar
    23     4     5   ar
    24     5     6   ar
    25     6    19    1
    26    19    20    1
    27    19    21    1
    28    19    22    1
    29    18    12   ar
    30     6     1   ar
    31    31    25   ar
    32     9    10    1
    33    23    24    1
@<TRIPOS>MOLECULE
*****
 31 33 0 0 0
SMALL
GASTEIGER

@<TRIPOS>ATOM
      1 C          63.5030   88.9334   12.9644 C.ar    1  UNL1        0.0942
      2 C          63.1461   87.7060   12.1796 C.ar    1  UNL1        0.1078
      3 N          63.3154   86.3478   12.7933 N.ar    1  UNL1       -0.2119
      4 C          63.8416   86.2171   14.1919 C.ar    1  UNL1        0.2206
      5 N          64.1985   87.4445   14.9768 N.ar    1  UNL1       -0.2094
      6 C          64.0292   88.8027   14.3630 C.ar    1  UNL1        0.1613
      7 O          61.9974   90.7105   11.8133 O.2     1  UNL1       -0.2700
      8 C          63.3337   90.2916   12.3507 C.2     1  UNL1        0.2490
      9 N          64.5007   91.2309   12.2744 N.am    1  UNL1       -0.2968
     10 H          65.3778   90.9560   12.6272 H       1  UNL1        0.1501
     11 C          64.3314   92.5891   11.6607 C.3     1  UNL1        0.1166
     12 C          65.4410   93.1889   10.8488 C.ar    1  UNL1       -0.0024
     13 C          65.3865   94.6359   10.4576 C.ar    1  UNL1       -0.0003
     14 C          66.4960   95.2356    9.6457 C.ar    1  UNL1        0.0294
     15 C          67.6601   94.3883    9.2250 C.ar    1  UNL1        0.1401
     16 F          68.7696   94.9880    8.4130 F       1  UNL1       -0.2042
     17 C          67.7146   92.9412    9.6162 C.ar    1  UNL1        0.0294
     18 C          66.6050   92.3415   10.4281 C.ar    1  UNL1       -0.0003
     19 C          64.3861   90.0302   15.1478 C.3     1  UNL1        0.4351
     20 F          64.7430   91.2576   15.9327 F       1  UNL1       -0.1644
     21 F          63.0154   90.0392   15.7570 F       1  UNL1       -0.1644
     22 F          65.7567   90.0212   14.5386 F       1  UNL1       -0.1644
     23 N          64.0109   84.8589   14.8056 N.pl3   1  UNL1       -0.2825
     24 H          64.4046   84.7701   15.7036 H       1  UNL1        0.1551
     25 C          63.5804   83.6360   14.0512 C.ar    1  UNL1        0.0513
     26 C          64.3537   83.1867   12.8470 C.ar    1  UNL1        0.0147
     27 C          63.9231   81.9638   12.0926 C.ar    1  UNL1        0.0021
     28 C          62.7194   81.1902   12.5423 C.ar    1  UNL1        0.0115
     29 C          61.9461   81.6395   13.7465 C.ar    1  UNL1        0.0589
     30 CL         60.7422   80.8658   14.1964 Cl      1  UNL1       -0.0822
     31 C          62.3766   82.8624   14.5010 C.ar    1  UNL1        0.0261
@<TRIPOS>BOND
     1     7     8    2
     2     8     9   am
     3     9    11    1
     4    11    12    1
     5    12    13   ar
     6    13    14   ar
     7    14    15   ar
     8    15    16    1
     9    15    17   ar
    10    17    18   ar
    11     8     1    1
    12     1     2   ar
    13     2     3   ar
    14     3     4   ar
    15     4    23    1
    16    23    25    1
    17    25    26   ar
    18    26    27   ar
    19    27    28   ar
    20    28    29   ar
    21    29    30    1
    22    29    31   ar
    23     4     5   ar
    24     5     6   ar
    25     6    19    1
    26    19    20    1
    27    19    21    1
    28    19    22    1
    29    18    12   ar
    30     6     1   ar
    31    31    25   ar
    32     9    10    1
    33    23    24    1
