@<TRIPOS>MOLECULE
*****
 32 34 0 0 0
SMALL
GASTEIGER

@<TRIPOS>ATOM
      1 C          60.5056   89.1765    7.4682 C.ar    1  UNL1        0.0614
      2 C          60.3431   87.6861    7.5150 C.ar    1  UNL1        0.0247
      3 C          60.6969   87.2245    8.8977 C.ar    1  UNL1        0.0662
      4 N          61.0780   88.4296    9.7054 N.ar    1  UNL1       -0.2624
      5 C          60.9598   89.6360    8.8220 C.ar    1  UNL1        0.0922
      6 C          61.4318   87.9680   11.0881 C.2     1  UNL1        0.3234
      7 O          61.8709   88.8431   12.2244 O.2     1  UNL1       -0.2490
      8 N          61.2693   86.4775   11.1349 N.am    1  UNL1       -0.2560
      9 C          60.8151   86.0180    9.7811 C.3     1  UNL1        0.1394
     10 C          60.0094   90.9305    5.0855 C.1     1  UNL1       -0.0095
     11 C          60.2575   90.0535    6.2769 C.1     1  UNL1       -0.0497
     12 C          59.5134   92.6844    2.7026 C.1     1  UNL1       -0.0761
     13 C          59.7614   91.8075    3.8941 C.1     1  UNL1       -0.0138
     14 C          58.6666   95.6783   -1.3651 C.3     1  UNL1        0.0897
     15 N          58.9146   94.8014   -0.1737 N.3     1  UNL1       -0.2697
     16 C          59.6564   94.9558    1.1209 C.3     1  UNL1        0.0867
     17 C          59.2654   93.5612    1.5113 C.3     1  UNL1        0.0969
     18 C          58.5235   93.4069    0.2166 C.3     1  UNL1        0.0867
     19 C          61.5174   85.6005   12.3262 C.3     1  UNL1        0.0977
     20 C          62.8800   85.0176   12.5577 C.3     1  UNL1        0.0524
     21 C          63.0679   83.9303   13.5737 C.3     1  UNL1        0.1820
     22 C          63.2558   82.8431   14.5899 C.3     1  UNL1        0.0331
     23 C          62.9896   84.9459   14.6749 C.2     1  UNL1        0.2640
     24 O          63.8961   86.1408   14.6590 O.2     1  UNL1       -0.2713
     25 N          62.0048   84.7664   15.7920 N.am    1  UNL1       -0.1956
     26 O          61.9265   85.7820   16.8932 O.3     1  UNL1       -0.2951
     27 H          61.4098   83.9821   15.8025 H       1  UNL1        0.1823
     28 H          62.5753   86.4847   16.7317 H       1  UNL1        0.2414
     29 S          63.1462   82.9148   12.4727 S.O2    1  UNL1       -0.0034
     30 C          63.2244   81.8991   11.3717 C.3     1  UNL1        0.1765
     31 O          62.0320   82.1383   13.1097 O.2     1  UNL1       -0.1726
     32 O          64.2603   83.6911   11.8357 O.2     1  UNL1       -0.1726
@<TRIPOS>BOND
     1    14    15    1
     2    15    16    1
     3    16    17    1
     4    17    12    1
     5    12    13    3
     6    13    10    1
     7    10    11    3
     8    11     1    1
     9     1     2   ar
    10     2     3   ar
    11     3     4   ar
    12     4     5   ar
    13     4     6   am
    14     6     7    2
    15     6     8   am
    16     8    19    1
    17    19    20    1
    18    20    21    1
    19    21    22    1
    20    21    23    1
    21    23    24    2
    22    23    25   am
    23    25    26    1
    24    21    29    1
    25    29    30    1
    26    29    31    2
    27    29    32    2
    28     8     9    1
    29    17    18    1
    30    18    15    1
    31     5     1   ar
    32     9     3    1
    33    25    27    1
    34    26    28    1
@<TRIPOS>MOLECULE
*****
 32 34 0 0 0
SMALL
GASTEIGER

@<TRIPOS>ATOM
      1 C          60.6723   89.0863    7.6443 C.ar    1  UNL1        0.0614
      2 C          60.4021   87.6130    7.7236 C.ar    1  UNL1        0.0247
      3 C          60.8151   87.1386    9.0853 C.ar    1  UNL1        0.0662
      4 N          61.3406   88.3188    9.8477 N.ar    1  UNL1       -0.2624
      5 C          61.2523   89.5225    8.9571 C.ar    1  UNL1        0.0922
      6 C          61.7536   87.8444   11.2094 C.2     1  UNL1        0.3234
      7 O          62.3348   88.6941   12.3004 O.2     1  UNL1       -0.2490
      8 N          61.4835   86.3710   11.2887 N.am    1  UNL1       -0.2560
      9 C          60.9034   85.9349    9.9759 C.3     1  UNL1        0.1394
     10 C          60.1452   90.8509    5.2761 C.1     1  UNL1       -0.0095
     11 C          60.4087   89.9686    6.4602 C.1     1  UNL1       -0.0497
     12 C          59.6183   92.6156    2.9079 C.1     1  UNL1       -0.0761
     13 C          59.8817   91.7333    4.0920 C.1     1  UNL1       -0.0138
     14 C          58.7190   95.6279   -1.1350 C.3     1  UNL1        0.0897
     15 N          58.9824   94.7455    0.0492 N.3     1  UNL1       -0.2697
     16 C          59.7081   94.9074    1.3519 C.3     1  UNL1        0.0867
     17 C          59.3549   93.4978    1.7238 C.3     1  UNL1        0.0969
     18 C          58.6291   93.3360    0.4210 C.3     1  UNL1        0.0867
     19 C          61.7470   85.4887   12.4728 C.3     1  UNL1        0.0977
     20 C          63.1571   85.2135   12.9039 C.3     1  UNL1        0.0524
     21 C          63.4671   83.9946   13.7213 C.3     1  UNL1        0.1820
     22 C          63.7771   82.7757   14.5387 C.3     1  UNL1        0.0331
     23 C          63.5095   83.1669   12.4711 C.2     1  UNL1        0.2640
     24 O          62.3987   82.2048   12.1706 O.2     1  UNL1       -0.2713
     25 N          64.6627   83.3014   11.5213 N.am    1  UNL1       -0.1956
     26 O          64.7051   82.4737   10.2711 O.3     1  UNL1       -0.2951
     27 H          65.3918   83.9329   11.7186 H       1  UNL1        0.1823
     28 H          63.9173   81.9092   10.2301 H       1  UNL1        0.2414
     29 S          63.4247   84.8222   14.9716 S.O2    1  UNL1       -0.0034
     30 C          63.3823   85.6498   16.2219 C.3     1  UNL1        0.1765
     31 O          62.3395   83.9421   15.5173 O.2     1  UNL1       -0.1726
     32 O          64.5099   85.7023   14.4260 O.2     1  UNL1       -0.1726
@<TRIPOS>BOND
     1    14    15    1
     2    15    16    1
     3    16    17    1
     4    17    12    1
     5    12    13    3
     6    13    10    1
     7    10    11    3
     8    11     1    1
     9     1     2   ar
    10     2     3   ar
    11     3     4   ar
    12     4     5   ar
    13     4     6   am
    14     6     7    2
    15     6     8   am
    16     8    19    1
    17    19    20    1
    18    20    21    1
    19    21    22    1
    20    21    23    1
    21    23    24    2
    22    23    25   am
    23    25    26    1
    24    21    29    1
    25    29    30    1
    26    29    31    2
    27    29    32    2
    28     8     9    1
    29    17    18    1
    30    18    15    1
    31     5     1   ar
    32     9     3    1
    33    25    27    1
    34    26    28    1
@<TRIPOS>MOLECULE
*****
 32 34 0 0 0
SMALL
GASTEIGER

@<TRIPOS>ATOM
      1 C          72.3715   77.3600   11.4033 C.ar    1  UNL1        0.0614
      2 C          71.7541   77.8502   12.6795 C.ar    1  UNL1        0.0247
      3 C          71.8071   76.7329   13.6789 C.ar    1  UNL1        0.0662
      4 N          72.4571   75.5523   13.0205 N.ar    1  UNL1       -0.2624
      5 C          72.8060   75.9399   11.6141 C.ar    1  UNL1        0.0922
      6 C          72.5101   74.4351   14.0200 C.2     1  UNL1        0.3234
      7 O          73.0802   73.0678   13.7846 O.2     1  UNL1       -0.2490
      8 N          71.8927   74.9252   15.2962 N.am    1  UNL1       -0.2560
      9 C          71.4582   76.3454   15.0854 C.3     1  UNL1        0.1394
     10 C          72.6827   78.9422    8.8735 C.1     1  UNL1       -0.0095
     11 C          72.5271   78.1511   10.1384 C.1     1  UNL1       -0.0497
     12 C          72.9938   80.5244    6.3436 C.1     1  UNL1       -0.0761
     13 C          72.8382   79.7333    7.6085 C.1     1  UNL1       -0.0138
     14 C          73.5248   83.2253    2.0250 C.3     1  UNL1        0.0897
     15 N          73.3693   82.4342    3.2899 N.3     1  UNL1       -0.2697
     16 C          72.8856   82.7364    4.6773 C.3     1  UNL1        0.0867
     17 C          73.1493   81.3154    5.0788 C.3     1  UNL1        0.0969
     18 C          73.6330   81.0132    3.6914 C.3     1  UNL1        0.0867
     19 C          71.7371   74.1341   16.5610 C.3     1  UNL1        0.0977
     20 C          70.9019   72.8881   16.5685 C.3     1  UNL1        0.0524
     21 C          71.4886   71.5949   17.0513 C.3     1  UNL1        0.1820
     22 C          72.0753   70.3015   17.5341 C.3     1  UNL1        0.0331
     23 C          71.6044   71.1182   15.6338 C.2     1  UNL1        0.2640
     24 O          72.7643   70.2600   15.2235 O.2     1  UNL1       -0.2713
     25 N          70.5603   71.4996   14.6266 N.am    1  UNL1       -0.1956
     26 O          70.6761   71.0228   13.2090 O.3     1  UNL1       -0.2951
     27 H          69.7991   72.0628   14.8959 H       1  UNL1        0.1823
     28 H          71.4769   70.4838   13.1136 H       1  UNL1        0.2414
     29 S          71.3729   72.0714   18.4688 S.O2    1  UNL1       -0.0034
     30 C          71.2572   72.5480   19.8864 C.3     1  UNL1        0.1765
     31 O          72.8678   72.1498   18.5645 O.2     1  UNL1       -0.1726
     32 O          69.8780   71.9931   18.3732 O.2     1  UNL1       -0.1726
@<TRIPOS>BOND
     1    14    15    1
     2    15    16    1
     3    16    17    1
     4    17    12    1
     5    12    13    3
     6    13    10    1
     7    10    11    3
     8    11     1    1
     9     1     2   ar
    10     2     3   ar
    11     3     4   ar
    12     4     5   ar
    13     4     6   am
    14     6     7    2
    15     6     8   am
    16     8    19    1
    17    19    20    1
    18    20    21    1
    19    21    22    1
    20    21    23    1
    21    23    24    2
    22    23    25   am
    23    25    26    1
    24    21    29    1
    25    29    30    1
    26    29    31    2
    27    29    32    2
    28     8     9    1
    29    17    18    1
    30    18    15    1
    31     5     1   ar
    32     9     3    1
    33    25    27    1
    34    26    28    1
@<TRIPOS>MOLECULE
*****
 32 34 0 0 0
SMALL
GASTEIGER

@<TRIPOS>ATOM
      1 C          65.9751   95.6312    7.0933 C.ar    1  UNL1        0.0614
      2 C          67.0142   94.7634    7.7391 C.ar    1  UNL1        0.0247
      3 C          66.8739   94.9011    9.2262 C.ar    1  UNL1        0.0662
      4 N          65.7482   95.8541    9.4994 N.ar    1  UNL1       -0.2624
      5 C          65.1927   96.3053    8.1811 C.ar    1  UNL1        0.0922
      6 C          65.6080   95.9919   10.9864 C.2     1  UNL1        0.3234
      7 O          64.6049   96.8473   11.7019 O.2     1  UNL1       -0.2490
      8 N          66.6471   95.1240   11.6324 N.am    1  UNL1       -0.2560
      9 C          67.4295   94.4499   10.5444 C.3     1  UNL1        0.1394
     10 C          65.5384   95.9609    4.1436 C.1     1  UNL1       -0.0095
     11 C          65.7567   95.7960    5.6184 C.1     1  UNL1       -0.0497
     12 C          65.1014   96.2904    1.1939 C.1     1  UNL1       -0.0761
     13 C          65.3199   96.1256    2.6687 C.1     1  UNL1       -0.0138
     14 C          64.3554   96.8528   -3.8415 C.3     1  UNL1        0.0897
     15 N          64.5740   96.6881   -2.3666 N.3     1  UNL1       -0.2697
     16 C          63.6930   96.3841   -1.1913 C.3     1  UNL1        0.0867
     17 C          64.8830   96.4551   -0.2809 C.3     1  UNL1        0.0969
     18 C          65.7640   96.7591   -1.4563 C.3     1  UNL1        0.0867
     19 C          66.8654   94.9592   13.1071 C.3     1  UNL1        0.0977
     20 C          66.0449   93.9702   13.8810 C.3     1  UNL1        0.0524
     21 C          66.5170   92.5538   14.0251 C.3     1  UNL1        0.1820
     22 C          66.9890   91.1373   14.1693 C.3     1  UNL1        0.0331
     23 C          65.4098   92.0931   13.1240 C.2     1  UNL1        0.2640
     24 O          65.5848   92.1429   11.6351 O.2     1  UNL1       -0.2713
     25 N          64.1278   91.5825   13.7118 N.am    1  UNL1       -0.1956
     26 O          63.0206   91.1218   12.8107 O.3     1  UNL1       -0.2951
     27 H          64.0129   91.5498   14.6891 H       1  UNL1        0.1823
     28 H          63.2949   91.2197   11.8855 H       1  UNL1        0.2414
     29 S          67.6241   93.0144   14.9262 S.O2    1  UNL1       -0.0034
     30 C          68.7313   93.4750   15.8273 C.3     1  UNL1        0.1765
     31 O          68.6307   92.6508   13.8752 O.2     1  UNL1       -0.1726
     32 O          66.6176   93.3780   15.9772 O.2     1  UNL1       -0.1726
@<TRIPOS>BOND
     1    14    15    1
     2    15    16    1
     3    16    17    1
     4    17    12    1
     5    12    13    3
     6    13    10    1
     7    10    11    3
     8    11     1    1
     9     1     2   ar
    10     2     3   ar
    11     3     4   ar
    12     4     5   ar
    13     4     6   am
    14     6     7    2
    15     6     8   am
    16     8    19    1
    17    19    20    1
    18    20    21    1
    19    21    22    1
    20    21    23    1
    21    23    24    2
    22    23    25   am
    23    25    26    1
    24    21    29    1
    25    29    30    1
    26    29    31    2
    27    29    32    2
    28     8     9    1
    29    17    18    1
    30    18    15    1
    31     5     1   ar
    32     9     3    1
    33    25    27    1
    34    26    28    1
@<TRIPOS>MOLECULE
*****
 32 34 0 0 0
SMALL
GASTEIGER

@<TRIPOS>ATOM
      1 C          65.8737   95.9022    6.2460 C.ar    1  UNL1        0.0614
      2 C          67.0496   95.2337    6.8945 C.ar    1  UNL1        0.0247
      3 C          66.8825   95.3421    8.3812 C.ar    1  UNL1        0.0662
      4 N          65.6034   96.0774    8.6516 N.ar    1  UNL1       -0.2624
      5 C          64.9799   96.4236    7.3320 C.ar    1  UNL1        0.0922
      6 C          65.4363   96.1858   10.1383 C.2     1  UNL1        0.3234
      7 O          64.2939   96.8465   10.8514 O.2     1  UNL1       -0.2490
      8 N          66.6122   95.5173   10.7869 N.am    1  UNL1       -0.2560
      9 C          67.5060   94.9959    9.7008 C.3     1  UNL1        0.1394
     10 C          65.3937   96.1523    3.2953 C.1     1  UNL1       -0.0095
     11 C          65.6337   96.0272    4.7706 C.1     1  UNL1       -0.0497
     12 C          64.9139   96.4022    0.3444 C.1     1  UNL1       -0.0761
     13 C          65.1538   96.2773    1.8198 C.1     1  UNL1       -0.0138
     14 C          64.0948   96.8289   -4.6929 C.3     1  UNL1        0.0897
     15 N          64.3347   96.7039   -3.2175 N.3     1  UNL1       -0.2697
     16 C          65.5363   96.8081   -2.3257 C.3     1  UNL1        0.0867
     17 C          64.6740   96.5272   -1.1309 C.3     1  UNL1        0.0969
     18 C          63.4723   96.4230   -2.0228 C.3     1  UNL1        0.0867
     19 C          66.8522   95.3923   12.2622 C.3     1  UNL1        0.0977
     20 C          66.1524   94.3231   13.0479 C.3     1  UNL1        0.0524
     21 C          66.8278   93.0056   13.2885 C.3     1  UNL1        0.1820
     22 C          67.5033   91.6881   13.5291 C.3     1  UNL1        0.0331
     23 C          67.0998   93.4043   14.7087 C.2     1  UNL1        0.2640
     24 O          66.0053   93.3290   15.7316 O.2     1  UNL1       -0.2713
     25 N          68.4663   93.8784   15.1061 N.am    1  UNL1       -0.1956
     26 O          68.7383   94.2771   16.5263 O.3     1  UNL1       -0.2951
     27 H          69.1847   93.9278   14.4348 H       1  UNL1        0.1823
     28 H          67.9306   94.1696   17.0527 H       1  UNL1        0.2414
     29 S          66.5559   92.6068   11.8683 S.O2    1  UNL1       -0.0034
     30 C          66.2841   92.2080   10.4481 C.3     1  UNL1        0.1765
     31 O          68.0098   92.2897   11.6790 O.2     1  UNL1       -0.1726
     32 O          65.1022   92.9239   12.0575 O.2     1  UNL1       -0.1726
@<TRIPOS>BOND
     1    14    15    1
     2    15    16    1
     3    16    17    1
     4    17    12    1
     5    12    13    3
     6    13    10    1
     7    10    11    3
     8    11     1    1
     9     1     2   ar
    10     2     3   ar
    11     3     4   ar
    12     4     5   ar
    13     4     6   am
    14     6     7    2
    15     6     8   am
    16     8    19    1
    17    19    20    1
    18    20    21    1
    19    21    22    1
    20    21    23    1
    21    23    24    2
    22    23    25   am
    23    25    26    1
    24    21    29    1
    25    29    30    1
    26    29    31    2
    27    29    32    2
    28     8     9    1
    29    17    18    1
    30    18    15    1
    31     5     1   ar
    32     9     3    1
    33    25    27    1
    34    26    28    1
@<TRIPOS>MOLECULE
*****
 32 34 0 0 0
SMALL
GASTEIGER

@<TRIPOS>ATOM
      1 C          60.2486   89.3662    7.0050 C.ar    1  UNL1        0.0614
      2 C          61.1708   90.0282    6.0245 C.ar    1  UNL1        0.0247
      3 C          60.3407   90.8773    5.1080 C.ar    1  UNL1        0.0662
      4 N          58.9055   90.7400    5.5221 N.ar    1  UNL1       -0.2624
      5 C          58.8486   89.8061    6.6945 C.ar    1  UNL1        0.0922
      6 C          58.0754   91.5891    4.6056 C.2     1  UNL1        0.3234
      7 O          56.5848   91.7483    4.6601 O.2     1  UNL1       -0.2490
      8 N          58.9975   92.2512    3.6251 N.am    1  UNL1       -0.2560
      9 C          60.3976   91.8112    3.9356 C.3     1  UNL1        0.1394
     10 C          61.0616   87.4913    9.2014 C.1     1  UNL1       -0.0095
     11 C          60.6551   88.4287    8.1032 C.1     1  UNL1       -0.0497
     12 C          61.8745   85.6166   11.3980 C.1     1  UNL1       -0.0761
     13 C          61.4680   86.5539   10.2997 C.1     1  UNL1       -0.0138
     14 C          63.2622   82.4165   15.1478 C.3     1  UNL1        0.0897
     15 N          62.8558   83.3538   14.0494 N.3     1  UNL1       -0.2697
     16 C          62.5056   84.8104   13.9735 C.3     1  UNL1        0.0867
     17 C          62.2809   84.6794   12.4962 C.3     1  UNL1        0.0969
     18 C          62.6311   83.2227   12.5722 C.3     1  UNL1        0.0867
     19 C          58.5911   93.1886    2.5270 C.3     1  UNL1        0.0977
     20 C          59.6352   93.9541    1.7693 C.3     1  UNL1        0.0524
     21 C          60.2257   93.3784    0.5165 C.3     1  UNL1        0.1820
     22 C          60.8161   92.8026   -0.7365 C.3     1  UNL1        0.0331
     23 C          58.8575   93.3036   -0.0940 C.2     1  UNL1        0.2640
     24 O          58.0596   94.5565   -0.3020 O.2     1  UNL1       -0.2713
     25 N          58.2874   91.9758   -0.4964 N.am    1  UNL1       -0.1956
     26 O          56.9193   91.9010   -1.1068 O.3     1  UNL1       -0.2951
     27 H          58.8111   91.1534   -0.3598 H       1  UNL1        0.1823
     28 H          56.5442   92.7933   -1.1700 H       1  UNL1        0.2414
     29 S          61.5938   93.4531    1.1268 S.O2    1  UNL1       -0.0034
     30 C          62.9620   93.5278    1.7371 C.3     1  UNL1        0.1765
     31 O          61.8151   92.0041    0.8082 O.2     1  UNL1       -0.1726
     32 O          61.3726   94.9020    1.4454 O.2     1  UNL1       -0.1726
@<TRIPOS>BOND
     1    14    15    1
     2    15    16    1
     3    16    17    1
     4    17    12    1
     5    12    13    3
     6    13    10    1
     7    10    11    3
     8    11     1    1
     9     1     2   ar
    10     2     3   ar
    11     3     4   ar
    12     4     5   ar
    13     4     6   am
    14     6     7    2
    15     6     8   am
    16     8    19    1
    17    19    20    1
    18    20    21    1
    19    21    22    1
    20    21    23    1
    21    23    24    2
    22    23    25   am
    23    25    26    1
    24    21    29    1
    25    29    30    1
    26    29    31    2
    27    29    32    2
    28     8     9    1
    29    17    18    1
    30    18    15    1
    31     5     1   ar
    32     9     3    1
    33    25    27    1
    34    26    28    1
