@<TRIPOS>MOLECULE
*****
 33 36 0 0 0
SMALL
GASTEIGER

@<TRIPOS>ATOM
      1 C          60.9785   89.1178   10.7668 C.ar    1  UNL1        0.1391
      2 C          61.3962   89.9372    9.5818 C.ar    1  UNL1        0.0369
      3 C          62.5597   90.8773    9.6927 C.ar    1  UNL1        0.0031
      4 C          63.3056   90.9981   10.9885 C.ar    1  UNL1       -0.0001
      5 C          64.4692   91.9383   11.0993 C.ar    1  UNL1       -0.0024
      6 C          65.2150   92.0590   12.3951 C.ar    1  UNL1       -0.0004
      7 C          64.7973   91.2396   13.5801 C.ar    1  UNL1       -0.0024
      8 C          63.6338   90.2995   13.4693 C.ar    1  UNL1       -0.0002
      9 C          62.8879   90.1787   12.1734 C.ar    1  UNL1        0.0030
     10 C          61.7244   89.2386   12.0626 C.ar    1  UNL1        0.0369
     11 O          59.8150   88.1776   10.6560 O.3     1  UNL1       -0.4706
     12 C          59.8479   87.0579    9.6584 C.3     1  UNL1        0.2320
     13 C          62.8389   84.6591   10.6829 C.ar    1  UNL1        0.0754
     14 C          63.4849   84.4261    9.3493 C.ar    1  UNL1        0.0064
     15 C          62.9185   85.0703    8.1188 C.ar    1  UNL1        0.0000
     16 C          61.7062   85.9476    8.2218 C.ar    1  UNL1       -0.0007
     17 C          61.0602   86.1806    9.5554 C.ar    1  UNL1        0.0214
     18 C          61.6266   85.5364   10.7859 C.ar    1  UNL1        0.0057
     19 C          63.4053   84.0149   11.9134 C.2     1  UNL1        0.3413
     20 O          64.3929   82.8931   11.7858 O.2     1  UNL1       -0.2449
     21 C          63.9436   85.2677   14.1249 C.3     1  UNL1        0.2560
     22 O          62.9841   84.4924   13.2715 O.3     1  UNL1       -0.4413
     23 C          66.3785   92.9992   12.5060 C.3     1  UNL1        0.1240
     24 N          67.2546   92.9680   13.7231 N.ar    1  UNL1       -0.3045
     25 C          67.1319   93.8625   14.9210 C.ar    1  UNL1        0.0983
     26 C          68.2087   93.4842   15.8943 C.ar    1  UNL1        0.1193
     27 N          68.9970   92.3559   15.2981 N.ar    1  UNL1       -0.2223
     28 C          68.4073   92.0369   13.9562 C.ar    1  UNL1        0.1788
     29 C          66.6660   93.9705   11.3996 C.3     1  UNL1        0.0827
     30 C          66.0918   95.3554   11.4494 C.3     1  UNL1        0.0197
     31 N          67.5277   93.5570   10.2436 N.3     1  UNL1       -0.2696
     32 C          68.1308   92.1840   10.2111 C.3     1  UNL1        0.0897
     33 C          67.7862   94.5165    9.1199 C.3     1  UNL1        0.0897
@<TRIPOS>BOND
     1    21    22    1
     2    22    19    1
     3    19    20    2
     4    19    13    1
     5    13    14   ar
     6    14    15   ar
     7    15    16   ar
     8    16    17   ar
     9    17    12    1
    10    12    11    1
    11    11     1    1
    12     1     2   ar
    13     2     3   ar
    14     3     4   ar
    15     4     5   ar
    16     5     6   ar
    17     6    23    1
    18    23    29    1
    19    29    30    1
    20    29    31    1
    21    31    32    1
    22    31    33    1
    23    23    24    1
    24    24    25   ar
    25    25    26   ar
    26    26    27   ar
    27    27    28   ar
    28     6     7   ar
    29     7     8   ar
    30     8     9   ar
    31     9    10   ar
    32    17    18   ar
    33    18    13   ar
    34    10     1   ar
    35     9     4   ar
    36    28    24   ar
@<TRIPOS>MOLECULE
*****
 33 36 0 0 0
SMALL
GASTEIGER

@<TRIPOS>ATOM
      1 C          61.9224   88.0906   11.4964 C.ar    1  UNL1        0.1391
      2 C          62.6972   87.9344   12.7712 C.ar    1  UNL1        0.0369
      3 C          63.7297   88.9540   13.1511 C.ar    1  UNL1        0.0031
      4 C          63.9873   90.1298   12.2561 C.ar    1  UNL1       -0.0001
      5 C          65.0199   91.1495   12.6360 C.ar    1  UNL1       -0.0024
      6 C          65.2776   92.3253   11.7410 C.ar    1  UNL1       -0.0004
      7 C          64.5027   92.4815   10.4661 C.ar    1  UNL1       -0.0024
      8 C          63.4702   91.4619   10.0863 C.ar    1  UNL1       -0.0002
      9 C          63.2125   90.2861   10.9813 C.ar    1  UNL1        0.0030
     10 C          62.1801   89.2664   10.6014 C.ar    1  UNL1        0.0369
     11 O          60.8899   87.0709   11.1165 O.3     1  UNL1       -0.4706
     12 C          61.2646   85.9165   10.2351 C.3     1  UNL1        0.2320
     13 C          63.5051   83.6281   12.5789 C.ar    1  UNL1        0.0754
     14 C          64.4188   82.9978   11.5701 C.ar    1  UNL1        0.0064
     15 C          64.2811   83.3404   10.1162 C.ar    1  UNL1        0.0000
     16 C          63.2298   84.3133    9.6712 C.ar    1  UNL1       -0.0007
     17 C          62.3161   84.9436   10.6801 C.ar    1  UNL1        0.0214
     18 C          62.4537   84.6009   12.1339 C.ar    1  UNL1        0.0057
     19 C          63.6428   83.2854   14.0328 C.2     1  UNL1        0.3413
     20 O          64.2326   84.2824   14.9857 O.2     1  UNL1       -0.2449
     21 C          61.8510   81.4065   14.1280 C.3     1  UNL1        0.2560
     22 O          63.1906   81.9458   14.5337 O.3     1  UNL1       -0.4413
     23 C          66.3100   93.3450   12.1208 C.3     1  UNL1        0.1240
     24 N          67.0777   93.1942   13.4006 N.ar    1  UNL1       -0.3045
     25 C          66.7701   93.8790   14.6993 C.ar    1  UNL1        0.0983
     26 C          67.7901   93.4401   15.7077 C.ar    1  UNL1        0.1193
     27 N          68.7281   92.4841   15.0324 N.ar    1  UNL1       -0.2223
     28 C          68.2878   92.3321   13.6066 C.ar    1  UNL1        0.1788
     29 C          66.5748   94.5155   11.2209 C.3     1  UNL1        0.0827
     30 C          66.0031   95.8617   11.5535 C.3     1  UNL1        0.0197
     31 N          67.4114   94.3396    9.9883 N.3     1  UNL1       -0.2696
     32 C          68.1354   93.0475    9.7513 C.3     1  UNL1        0.0897
     33 C          67.5239   95.4560    8.9927 C.3     1  UNL1        0.0897
@<TRIPOS>BOND
     1    21    22    1
     2    22    19    1
     3    19    20    2
     4    19    13    1
     5    13    14   ar
     6    14    15   ar
     7    15    16   ar
     8    16    17   ar
     9    17    12    1
    10    12    11    1
    11    11     1    1
    12     1     2   ar
    13     2     3   ar
    14     3     4   ar
    15     4     5   ar
    16     5     6   ar
    17     6    23    1
    18    23    29    1
    19    29    30    1
    20    29    31    1
    21    31    32    1
    22    31    33    1
    23    23    24    1
    24    24    25   ar
    25    25    26   ar
    26    26    27   ar
    27    27    28   ar
    28     6     7   ar
    29     7     8   ar
    30     8     9   ar
    31     9    10   ar
    32    17    18   ar
    33    18    13   ar
    34    10     1   ar
    35     9     4   ar
    36    28    24   ar
@<TRIPOS>MOLECULE
*****
 33 36 0 0 0
SMALL
GASTEIGER

@<TRIPOS>ATOM
      1 C          64.8019   91.5079   14.2082 C.ar    1  UNL1        0.1391
      2 C          64.8553   90.1832   14.9097 C.ar    1  UNL1        0.0369
      3 C          64.2670   88.9661   14.2597 C.ar    1  UNL1        0.0031
      4 C          63.6253   89.0738   12.9082 C.ar    1  UNL1       -0.0001
      5 C          63.0370   87.8566   12.2582 C.ar    1  UNL1       -0.0024
      6 C          62.3953   87.9642   10.9067 C.ar    1  UNL1       -0.0004
      7 C          62.3419   89.2890   10.2052 C.ar    1  UNL1       -0.0024
      8 C          62.9302   90.5061   10.8552 C.ar    1  UNL1       -0.0002
      9 C          63.5719   90.3985   12.2067 C.ar    1  UNL1        0.0030
     10 C          64.1601   91.6156   12.8567 C.ar    1  UNL1        0.0369
     11 O          65.3902   92.7251   14.8582 O.3     1  UNL1       -0.4706
     12 C          66.5714   93.4100   14.2374 C.3     1  UNL1        0.2320
     13 C          66.3295   94.8519   10.5479 C.ar    1  UNL1        0.0754
     14 C          66.9008   93.7108    9.7596 C.ar    1  UNL1        0.0064
     15 C          67.3622   92.4694   10.4638 C.ar    1  UNL1        0.0000
     16 C          67.2525   92.3691   11.9564 C.ar    1  UNL1       -0.0007
     17 C          66.6812   93.5102   12.7448 C.ar    1  UNL1        0.0214
     18 C          66.2198   94.7516   12.0405 C.ar    1  UNL1        0.0057
     19 C          65.8681   96.0933    9.8437 C.2     1  UNL1        0.3413
     20 O          64.6402   96.8124   10.3182 O.2     1  UNL1       -0.2449
     21 C          65.9330   96.8559    7.3609 C.3     1  UNL1        0.2560
     22 O          66.6345   96.6157    8.6649 O.3     1  UNL1       -0.4413
     23 C          61.8070   86.7471   10.2567 C.3     1  UNL1        0.1240
     24 N          60.6542   86.8871    9.3072 N.ar    1  UNL1       -0.3045
     25 C          60.4075   86.0461    8.0899 C.ar    1  UNL1        0.0983
     26 C          59.1465   86.5318    7.4386 C.ar    1  UNL1        0.1193
     27 N          58.6139   87.6731    8.2535 N.ar    1  UNL1       -0.2223
     28 C          59.5457   87.8926    9.4083 C.ar    1  UNL1        0.1788
     29 C          62.3715   85.3900   10.5561 C.3     1  UNL1        0.0827
     30 C          62.0862   84.7332   11.8741 C.3     1  UNL1        0.0197
     31 N          63.2212   84.6897    9.5375 N.3     1  UNL1       -0.2696
     32 C          64.0603   83.5139    9.9414 C.3     1  UNL1        0.0897
     33 C          63.2318   85.1654    8.1149 C.3     1  UNL1        0.0897
@<TRIPOS>BOND
     1    21    22    1
     2    22    19    1
     3    19    20    2
     4    19    13    1
     5    13    14   ar
     6    14    15   ar
     7    15    16   ar
     8    16    17   ar
     9    17    12    1
    10    12    11    1
    11    11     1    1
    12     1     2   ar
    13     2     3   ar
    14     3     4   ar
    15     4     5   ar
    16     5     6   ar
    17     6    23    1
    18    23    29    1
    19    29    30    1
    20    29    31    1
    21    31    32    1
    22    31    33    1
    23    23    24    1
    24    24    25   ar
    25    25    26   ar
    26    26    27   ar
    27    27    28   ar
    28     6     7   ar
    29     7     8   ar
    30     8     9   ar
    31     9    10   ar
    32    17    18   ar
    33    18    13   ar
    34    10     1   ar
    35     9     4   ar
    36    28    24   ar
@<TRIPOS>MOLECULE
*****
 33 36 0 0 0
SMALL
GASTEIGER

@<TRIPOS>ATOM
      1 C          64.2481   90.7283   14.3734 C.ar    1  UNL1        0.1391
      2 C          63.5026   90.7693   13.0724 C.ar    1  UNL1        0.0369
      3 C          63.1339   89.4915   12.3787 C.ar    1  UNL1        0.0031
      4 C          63.5107   88.1727   12.9860 C.ar    1  UNL1       -0.0001
      5 C          63.1419   86.8948   12.2922 C.ar    1  UNL1       -0.0024
      6 C          63.5187   85.5760   12.8995 C.ar    1  UNL1       -0.0004
      7 C          64.2641   85.5350   14.2006 C.ar    1  UNL1       -0.0024
      8 C          64.6328   86.8128   14.8943 C.ar    1  UNL1       -0.0002
      9 C          64.2561   88.1317   14.2870 C.ar    1  UNL1        0.0030
     10 C          64.6248   89.4095   14.9807 C.ar    1  UNL1        0.0369
     11 O          64.6168   92.0061   15.0671 O.3     1  UNL1       -0.4706
     12 C          65.9931   92.5791   14.9018 C.3     1  UNL1        0.2320
     13 C          66.8405   93.5335   11.1439 C.ar    1  UNL1        0.0754
     14 C          67.9596   92.5776   10.8542 C.ar    1  UNL1        0.0064
     15 C          68.4232   91.6223   11.9136 C.ar    1  UNL1        0.0000
     16 C          67.7677   91.6228   13.2628 C.ar    1  UNL1       -0.0007
     17 C          66.6486   92.5786   13.5525 C.ar    1  UNL1        0.0214
     18 C          66.1850   93.5339   12.4931 C.ar    1  UNL1        0.0057
     19 C          66.3769   94.4888   10.0845 C.2     1  UNL1        0.3413
     20 O          67.0961   94.5577    8.7700 O.2     1  UNL1       -0.2449
     21 C          65.3841   96.8558   10.4861 C.3     1  UNL1        0.2560
     22 O          65.1940   95.3752   10.3395 O.3     1  UNL1       -0.4413
     23 C          63.1500   84.2982   12.2058 C.3     1  UNL1        0.1240
     24 N          62.6136   83.1427   12.9977 N.ar    1  UNL1       -0.3045
     25 C          62.3099   81.7739   12.4647 C.ar    1  UNL1        0.0983
     26 C          61.7954   80.9382   13.5992 C.ar    1  UNL1        0.1193
     27 N          61.7811   81.7906   14.8334 N.ar    1  UNL1       -0.2223
     28 C          62.2868   83.1530   14.4616 C.ar    1  UNL1        0.1788
     29 C          63.3176   84.1759   10.7202 C.3     1  UNL1        0.0827
     30 C          64.2444   83.1421   10.1526 C.3     1  UNL1        0.0197
     31 N          62.5584   85.0875    9.8023 N.3     1  UNL1       -0.2696
     32 C          63.1122   85.4195    8.4484 C.3     1  UNL1        0.0897
     33 C          61.2452   85.6670   10.2382 C.3     1  UNL1        0.0897
@<TRIPOS>BOND
     1    21    22    1
     2    22    19    1
     3    19    20    2
     4    19    13    1
     5    13    14   ar
     6    14    15   ar
     7    15    16   ar
     8    16    17   ar
     9    17    12    1
    10    12    11    1
    11    11     1    1
    12     1     2   ar
    13     2     3   ar
    14     3     4   ar
    15     4     5   ar
    16     5     6   ar
    17     6    23    1
    18    23    29    1
    19    29    30    1
    20    29    31    1
    21    31    32    1
    22    31    33    1
    23    23    24    1
    24    24    25   ar
    25    25    26   ar
    26    26    27   ar
    27    27    28   ar
    28     6     7   ar
    29     7     8   ar
    30     8     9   ar
    31     9    10   ar
    32    17    18   ar
    33    18    13   ar
    34    10     1   ar
    35     9     4   ar
    36    28    24   ar
@<TRIPOS>MOLECULE
*****
 33 36 0 0 0
SMALL
GASTEIGER

@<TRIPOS>ATOM
      1 C          60.1777   88.9176    8.4571 C.ar    1  UNL1        0.1391
      2 C          59.8273   87.5054    8.0930 C.ar    1  UNL1        0.0369
      3 C          60.3913   86.3643    8.8865 C.ar    1  UNL1        0.0031
      4 C          61.3057   86.6355   10.0443 C.ar    1  UNL1       -0.0001
      5 C          61.8697   85.4943   10.8378 C.ar    1  UNL1       -0.0024
      6 C          62.7841   85.7655   11.9956 C.ar    1  UNL1       -0.0004
      7 C          63.1345   87.1779   12.3597 C.ar    1  UNL1       -0.0024
      8 C          62.5705   88.3190   11.5661 C.ar    1  UNL1       -0.0002
      9 C          61.6561   88.0478   10.4084 C.ar    1  UNL1        0.0030
     10 C          61.0921   89.1888    9.6148 C.ar    1  UNL1        0.0369
     11 O          59.6137   90.0588    7.6635 O.3     1  UNL1       -0.4706
     12 C          59.2072   89.8502    6.2348 C.3     1  UNL1        0.2320
     13 C          61.6022   91.7294    3.6886 C.ar    1  UNL1        0.0754
     14 C          60.6412   92.6881    3.0504 C.ar    1  UNL1        0.0064
     15 C          59.2022   92.7008    3.4737 C.ar    1  UNL1        0.0000
     16 C          58.7242   91.7549    4.5351 C.ar    1  UNL1       -0.0007
     17 C          59.6852   90.7962    5.1733 C.ar    1  UNL1        0.0214
     18 C          61.1242   90.7834    4.7500 C.ar    1  UNL1        0.0057
     19 C          63.0412   91.7166    3.2653 C.2     1  UNL1        0.3413
     20 O          63.8347   90.4461    3.3437 O.2     1  UNL1       -0.2449
     21 C          64.1879   93.0484    1.3519 C.3     1  UNL1        0.2560
     22 O          63.6866   92.9742    2.7637 O.3     1  UNL1       -0.4413
     23 C          63.3481   84.6245   12.7891 C.3     1  UNL1        0.1240
     24 N          63.2418   83.2225   12.2665 N.ar    1  UNL1       -0.3045
     25 C          62.5792   82.0703   12.9616 C.ar    1  UNL1        0.0983
     26 C          62.7073   80.8622   12.0817 C.ar    1  UNL1        0.1193
     27 N          63.4491   81.2679   10.8427 N.ar    1  UNL1       -0.2223
     28 C          63.7794   82.7266   10.9569 C.ar    1  UNL1        0.1788
     29 C          64.0185   84.8853   14.1055 C.3     1  UNL1        0.0827
     30 C          65.5085   84.7610   14.2260 C.3     1  UNL1        0.0197
     31 N          63.1989   85.2706   15.3012 N.3     1  UNL1       -0.2696
     32 C          63.5580   86.4918   16.0947 C.3     1  UNL1        0.0897
     33 C          62.0202   84.4345   15.7034 C.3     1  UNL1        0.0897
@<TRIPOS>BOND
     1    21    22    1
     2    22    19    1
     3    19    20    2
     4    19    13    1
     5    13    14   ar
     6    14    15   ar
     7    15    16   ar
     8    16    17   ar
     9    17    12    1
    10    12    11    1
    11    11     1    1
    12     1     2   ar
    13     2     3   ar
    14     3     4   ar
    15     4     5   ar
    16     5     6   ar
    17     6    23    1
    18    23    29    1
    19    29    30    1
    20    29    31    1
    21    31    32    1
    22    31    33    1
    23    23    24    1
    24    24    25   ar
    25    25    26   ar
    26    26    27   ar
    27    27    28   ar
    28     6     7   ar
    29     7     8   ar
    30     8     9   ar
    31     9    10   ar
    32    17    18   ar
    33    18    13   ar
    34    10     1   ar
    35     9     4   ar
    36    28    24   ar
@<TRIPOS>MOLECULE
*****
 33 36 0 0 0
SMALL
GASTEIGER

@<TRIPOS>ATOM
      1 C          64.7738   91.3419   14.3868 C.ar    1  UNL1        0.1391
      2 C          64.0449   91.5680   13.0955 C.ar    1  UNL1        0.0369
      3 C          63.4862   90.4018   12.3356 C.ar    1  UNL1        0.0031
      4 C          63.6564   89.0094   12.8669 C.ar    1  UNL1       -0.0001
      5 C          63.0976   87.8431   12.1069 C.ar    1  UNL1       -0.0024
      6 C          63.2677   86.4507   12.6382 C.ar    1  UNL1       -0.0004
      7 C          63.9967   86.2246   13.9296 C.ar    1  UNL1       -0.0024
      8 C          64.5554   87.3909   14.6896 C.ar    1  UNL1       -0.0002
      9 C          64.3853   88.7833   14.1582 C.ar    1  UNL1        0.0030
     10 C          64.9440   89.9495   14.9182 C.ar    1  UNL1        0.0369
     11 O          65.3326   92.5082   15.1469 O.3     1  UNL1       -0.4706
     12 C          66.4900   93.2820   14.5887 C.3     1  UNL1        0.2320
     13 C          66.5349   94.4448   10.7945 C.ar    1  UNL1        0.0754
     14 C          67.2579   93.2968   10.1548 C.ar    1  UNL1        0.0064
     15 C          67.7250   92.1439   10.9930 C.ar    1  UNL1        0.0000
     16 C          67.4690   92.1389   12.4709 C.ar    1  UNL1       -0.0007
     17 C          66.7460   93.2869   13.1107 C.ar    1  UNL1        0.0214
     18 C          66.2790   94.4399   12.2725 C.ar    1  UNL1        0.0057
     19 C          66.0678   95.5978    9.9563 C.2     1  UNL1        0.3413
     20 O          64.9436   96.4670   10.4363 O.2     1  UNL1       -0.2449
     21 C          66.1005   96.8546    7.6827 C.3     1  UNL1        0.2560
     22 O          66.7251   95.8815    8.6382 O.3     1  UNL1       -0.4413
     23 C          62.7090   85.2844   11.8783 C.3     1  UNL1        0.1240
     24 N          62.1811   85.4788   10.4878 N.ar    1  UNL1       -0.3045
     25 C          62.8919   85.1199    9.2166 C.ar    1  UNL1        0.0983
     26 C          61.9998   85.4855    8.0675 C.ar    1  UNL1        0.1193
     27 N          60.7375   86.0704    8.6285 N.ar    1  UNL1       -0.2223
     28 C          60.8496   86.0662   10.1243 C.ar    1  UNL1        0.1788
     29 C          62.6782   83.9237   12.5088 C.3     1  UNL1        0.0827
     30 C          62.0079   83.7272   13.8363 C.3     1  UNL1        0.0197
     31 N          63.3176   82.7595   11.8119 N.3     1  UNL1       -0.2696
     32 C          62.6770   81.4046   11.8733 C.3     1  UNL1        0.0897
     33 C          64.5976   82.9503   11.0534 C.3     1  UNL1        0.0897
@<TRIPOS>BOND
     1    21    22    1
     2    22    19    1
     3    19    20    2
     4    19    13    1
     5    13    14   ar
     6    14    15   ar
     7    15    16   ar
     8    16    17   ar
     9    17    12    1
    10    12    11    1
    11    11     1    1
    12     1     2   ar
    13     2     3   ar
    14     3     4   ar
    15     4     5   ar
    16     5     6   ar
    17     6    23    1
    18    23    29    1
    19    29    30    1
    20    29    31    1
    21    31    32    1
    22    31    33    1
    23    23    24    1
    24    24    25   ar
    25    25    26   ar
    26    26    27   ar
    27    27    28   ar
    28     6     7   ar
    29     7     8   ar
    30     8     9   ar
    31     9    10   ar
    32    17    18   ar
    33    18    13   ar
    34    10     1   ar
    35     9     4   ar
    36    28    24   ar
@<TRIPOS>MOLECULE
*****
 33 36 0 0 0
SMALL
GASTEIGER

@<TRIPOS>ATOM
      1 C          60.4932   87.4543    8.2265 C.ar    1  UNL1        0.1391
      2 C          59.9914   87.9373    9.5550 C.ar    1  UNL1        0.0369
      3 C          60.4904   87.3048   10.8202 C.ar    1  UNL1        0.0031
      4 C          61.4912   86.1893   10.7570 C.ar    1  UNL1       -0.0001
      5 C          61.9901   85.5567   12.0223 C.ar    1  UNL1       -0.0024
      6 C          62.9909   84.4412   11.9591 C.ar    1  UNL1       -0.0004
      7 C          63.4928   83.9582   10.6305 C.ar    1  UNL1       -0.0024
      8 C          62.9938   84.5907    9.3653 C.ar    1  UNL1       -0.0002
      9 C          61.9930   85.7063    9.4285 C.ar    1  UNL1        0.0030
     10 C          61.4940   86.3388    8.1633 C.ar    1  UNL1        0.0369
     11 O          59.9943   88.0869    6.9612 O.3     1  UNL1       -0.4706
     12 C          59.1227   89.3059    7.0252 C.3     1  UNL1        0.2320
     13 C          60.5163   91.6414    4.1350 C.ar    1  UNL1        0.0754
     14 C          59.2627   92.3484    3.7125 C.ar    1  UNL1        0.0064
     15 C          57.9624   92.0413    4.3943 C.ar    1  UNL1        0.0000
     16 C          57.9157   91.0272    5.4985 C.ar    1  UNL1       -0.0007
     17 C          59.1693   90.3201    5.9209 C.ar    1  UNL1        0.0214
     18 C          60.4696   90.6273    5.2391 C.ar    1  UNL1        0.0057
     19 C          61.8167   91.9485    3.4532 C.2     1  UNL1        0.3413
     20 O          63.0639   91.2170    3.8523 O.2     1  UNL1       -0.2449
     21 C          61.7816   92.5763    0.9324 C.3     1  UNL1        0.2560
     22 O          61.8698   92.9872    2.3723 O.3     1  UNL1       -0.4413
     23 C          63.4899   83.8086   13.2243 C.3     1  UNL1        0.1240
     24 N          63.2358   82.3537   13.4863 N.ar    1  UNL1       -0.3045
     25 C          61.9929   81.5964   13.1234 C.ar    1  UNL1        0.0983
     26 C          62.1689   80.1753   13.5701 C.ar    1  UNL1        0.1193
     27 N          63.5205   80.0543   14.2090 N.ar    1  UNL1       -0.2223
     28 C          64.1799   81.4006   14.1573 C.ar    1  UNL1        0.1788
     29 C          64.2430   84.6310   14.2276 C.3     1  UNL1        0.0827
     30 C          65.7406   84.6958   14.1717 C.3     1  UNL1        0.0197
     31 N          63.4986   85.3885   15.2869 N.3     1  UNL1       -0.2696
     32 C          62.3597   84.7374   16.0142 C.3     1  UNL1        0.0897
     33 C          63.8930   86.7972   15.6187 C.3     1  UNL1        0.0897
@<TRIPOS>BOND
     1    21    22    1
     2    22    19    1
     3    19    20    2
     4    19    13    1
     5    13    14   ar
     6    14    15   ar
     7    15    16   ar
     8    16    17   ar
     9    17    12    1
    10    12    11    1
    11    11     1    1
    12     1     2   ar
    13     2     3   ar
    14     3     4   ar
    15     4     5   ar
    16     5     6   ar
    17     6    23    1
    18    23    29    1
    19    29    30    1
    20    29    31    1
    21    31    32    1
    22    31    33    1
    23    23    24    1
    24    24    25   ar
    25    25    26   ar
    26    26    27   ar
    27    27    28   ar
    28     6     7   ar
    29     7     8   ar
    30     8     9   ar
    31     9    10   ar
    32    17    18   ar
    33    18    13   ar
    34    10     1   ar
    35     9     4   ar
    36    28    24   ar
@<TRIPOS>MOLECULE
*****
 33 36 0 0 0
SMALL
GASTEIGER

@<TRIPOS>ATOM
      1 C          59.0144   90.2026    6.0795 C.ar    1  UNL1        0.1391
      2 C          57.9199   91.0431    5.4917 C.ar    1  UNL1        0.0369
      3 C          58.2208   91.9837    4.3628 C.ar    1  UNL1        0.0031
      4 C          59.6162   92.0839    3.8216 C.ar    1  UNL1       -0.0001
      5 C          59.9171   93.0246    2.6926 C.ar    1  UNL1       -0.0024
      6 C          61.3125   93.1247    2.1514 C.ar    1  UNL1       -0.0004
      7 C          62.4070   92.2841    2.7393 C.ar    1  UNL1       -0.0024
      8 C          62.1061   91.3435    3.8683 C.ar    1  UNL1       -0.0002
      9 C          60.7107   91.2433    4.4094 C.ar    1  UNL1        0.0030
     10 C          60.4098   90.3027    5.5384 C.ar    1  UNL1        0.0369
     11 O          58.7135   89.2618    7.2085 O.3     1  UNL1       -0.4706
     12 C          59.4629   87.9678    7.3265 C.3     1  UNL1        0.2320
     13 C          61.7154   88.5746   10.5370 C.ar    1  UNL1        0.0754
     14 C          62.0053   87.1623   10.9510 C.ar    1  UNL1        0.0064
     15 C          61.4477   86.0185   10.1568 C.ar    1  UNL1        0.0000
     16 C          60.6002   86.2870    8.9486 C.ar    1  UNL1       -0.0007
     17 C          60.3104   87.6993    8.5347 C.ar    1  UNL1        0.0214
     18 C          60.8680   88.8431    9.3289 C.ar    1  UNL1        0.0057
     19 C          62.2731   89.7184   11.3312 C.2     1  UNL1        0.3413
     20 O          62.6894   90.9811   10.6369 O.2     1  UNL1       -0.2449
     21 C          63.7739   89.4442   13.4341 C.3     1  UNL1        0.2560
     22 O          62.4143   89.5995   12.8198 O.3     1  UNL1       -0.4413
     23 C          61.6134   94.0654    1.0225 C.3     1  UNL1        0.1240
     24 N          62.9989   94.6144    0.8527 N.ar    1  UNL1       -0.3045
     25 C          63.5859   95.7737    1.6019 C.ar    1  UNL1        0.0983
     26 C          64.9906   95.9763    1.1162 C.ar    1  UNL1        0.1193
     27 N          65.2717   94.9421    0.0667 N.ar    1  UNL1       -0.2223
     28 C          64.0408   94.1004   -0.0961 C.ar    1  UNL1        0.1788
     29 C          60.5287   94.4571    0.0632 C.3     1  UNL1        0.0827
     30 C          59.7426   95.7138    0.2925 C.3     1  UNL1        0.0197
     31 N          60.2302   93.5920   -1.1253 N.3     1  UNL1       -0.2696
     32 C          61.0404   93.7350   -2.3794 C.3     1  UNL1        0.0897
     33 C          59.1213   92.5839   -1.0595 C.3     1  UNL1        0.0897
@<TRIPOS>BOND
     1    21    22    1
     2    22    19    1
     3    19    20    2
     4    19    13    1
     5    13    14   ar
     6    14    15   ar
     7    15    16   ar
     8    16    17   ar
     9    17    12    1
    10    12    11    1
    11    11     1    1
    12     1     2   ar
    13     2     3   ar
    14     3     4   ar
    15     4     5   ar
    16     5     6   ar
    17     6    23    1
    18    23    29    1
    19    29    30    1
    20    29    31    1
    21    31    32    1
    22    31    33    1
    23    23    24    1
    24    24    25   ar
    25    25    26   ar
    26    26    27   ar
    27    27    28   ar
    28     6     7   ar
    29     7     8   ar
    30     8     9   ar
    31     9    10   ar
    32    17    18   ar
    33    18    13   ar
    34    10     1   ar
    35     9     4   ar
    36    28    24   ar
@<TRIPOS>MOLECULE
*****
 33 36 0 0 0
SMALL
GASTEIGER

@<TRIPOS>ATOM
      1 C          60.2940   87.6339    8.0323 C.ar    1  UNL1        0.1391
      2 C          59.8044   88.1267    9.3617 C.ar    1  UNL1        0.0369
      3 C          60.2895   87.4814   10.6258 C.ar    1  UNL1        0.0031
      4 C          61.2643   86.3431   10.5606 C.ar    1  UNL1       -0.0001
      5 C          61.7494   85.6977   11.8248 C.ar    1  UNL1       -0.0024
      6 C          62.7242   84.5595   11.7596 C.ar    1  UNL1       -0.0004
      7 C          63.2138   84.0667   10.4301 C.ar    1  UNL1       -0.0024
      8 C          62.7287   84.7120    9.1659 C.ar    1  UNL1       -0.0002
      9 C          61.7539   85.8503    9.2312 C.ar    1  UNL1        0.0030
     10 C          61.2688   86.4957    7.9671 C.ar    1  UNL1        0.0369
     11 O          59.8089   88.2793    6.7681 O.3     1  UNL1       -0.4706
     12 C          59.2068   89.6525    6.8103 C.3     1  UNL1        0.2320
     13 C          60.9953   91.6931    3.9141 C.ar    1  UNL1        0.0754
     14 C          59.8455   92.4954    3.3810 C.ar    1  UNL1        0.0064
     15 C          58.4828   92.3500    3.9909 C.ar    1  UNL1        0.0000
     16 C          58.2699   91.4024    5.1339 C.ar    1  UNL1       -0.0007
     17 C          59.4197   90.6002    5.6671 C.ar    1  UNL1        0.0214
     18 C          60.7824   90.7455    5.0572 C.ar    1  UNL1        0.0057
     19 C          62.3579   91.8385    3.3043 C.2     1  UNL1        0.3413
     20 O          63.4494   90.8763    3.6689 O.2     1  UNL1       -0.2449
     21 C          63.9547   93.0230    1.6318 C.3     1  UNL1        0.2560
     22 O          62.6292   92.9460    2.3297 O.3     1  UNL1       -0.4413
     23 C          63.2093   83.9141   13.0237 C.3     1  UNL1        0.1240
     24 N          63.2918   84.7136   14.2902 N.ar    1  UNL1       -0.3045
     25 C          62.4699   84.4953   15.5258 C.ar    1  UNL1        0.0983
     26 C          62.8808   85.5186   16.5427 C.ar    1  UNL1        0.1193
     27 N          63.9566   86.3694   15.9355 N.ar    1  UNL1       -0.2223
     28 C          64.2106   85.8719   14.5434 C.ar    1  UNL1        0.1788
     29 C          63.6120   82.4691   13.0214 C.3     1  UNL1        0.0827
     30 C          65.0504   82.0917   12.8255 C.3     1  UNL1        0.0197
     31 N          62.5762   81.4016   13.2150 N.3     1  UNL1       -0.2696
     32 C          61.4795   81.5942   14.2201 C.3     1  UNL1        0.0897
     33 C          62.6371   80.1415   12.4035 C.3     1  UNL1        0.0897
@<TRIPOS>BOND
     1    21    22    1
     2    22    19    1
     3    19    20    2
     4    19    13    1
     5    13    14   ar
     6    14    15   ar
     7    15    16   ar
     8    16    17   ar
     9    17    12    1
    10    12    11    1
    11    11     1    1
    12     1     2   ar
    13     2     3   ar
    14     3     4   ar
    15     4     5   ar
    16     5     6   ar
    17     6    23    1
    18    23    29    1
    19    29    30    1
    20    29    31    1
    21    31    32    1
    22    31    33    1
    23    23    24    1
    24    24    25   ar
    25    25    26   ar
    26    26    27   ar
    27    27    28   ar
    28     6     7   ar
    29     7     8   ar
    30     8     9   ar
    31     9    10   ar
    32    17    18   ar
    33    18    13   ar
    34    10     1   ar
    35     9     4   ar
    36    28    24   ar
