@<TRIPOS>MOLECULE
*****
 22 23 0 0 0
SMALL
GASTEIGER

@<TRIPOS>ATOM
      1 C          64.9253   91.9706   11.9279 C.ar    1  UNL1        0.1754
      2 C          64.2595   90.9619   12.8163 C.ar    1  UNL1        0.0403
      3 C          64.8264   90.6677   14.1735 C.ar    1  UNL1        0.0063
      4 C          66.0593   91.3821   14.6422 C.ar    1  UNL1        0.0403
      5 C          66.7251   92.3907   13.7538 C.ar    1  UNL1        0.1754
      6 C          66.1581   92.6849   12.3966 C.ar    1  UNL1        0.2061
      7 C          63.2210   91.4440   10.0389 C.3     1  UNL1        0.2526
      8 O          64.3583   92.2648   10.5707 O.3     1  UNL1       -0.4683
      9 C          64.1605   89.6590   15.0619 C.2     1  UNL1        0.0035
     10 C          64.3701   88.1934   14.8212 C.2     1  UNL1        0.0435
     11 C          63.7042   87.1847   15.7095 C.2     1  UNL1        0.2111
     12 O          63.0548   87.6243   16.9883 O.2     1  UNL1       -0.2850
     13 C          63.6877   85.7365   15.3192 C.ar    1  UNL1        0.0961
     14 C          64.7906   84.9995   14.6188 C.ar    1  UNL1        0.0218
     15 C          64.3500   83.5785   14.4275 C.ar    1  UNL1        0.0200
     16 C          62.9748   83.4372   15.0097 C.ar    1  UNL1        0.0725
     17 N          62.5656   84.7709   15.5608 N.ar    1  UNL1       -0.3495
     18 H          61.7105   84.9765   16.0034 H       1  UNL1        0.1661
     19 O          67.9580   93.1051   14.2226 O.3     1  UNL1       -0.4683
     20 C          68.1862   93.3239   15.6888 C.3     1  UNL1        0.2526
     21 O          66.8240   93.6936   11.5082 O.3     1  UNL1       -0.4654
     22 C          66.2519   95.0743   11.3806 C.3     1  UNL1        0.2528
@<TRIPOS>BOND
     1     7     8    1
     2     8     1    1
     3     1     2   ar
     4     2     3   ar
     5     3     9    1
     6     9    10    2
     7    10    11    1
     8    11    12    2
     9    11    13    1
    10    13    14   ar
    11    14    15   ar
    12    15    16   ar
    13    16    17   ar
    14     3     4   ar
    15     4     5   ar
    16     5    19    1
    17    19    20    1
    18     5     6   ar
    19     6    21    1
    20    21    22    1
    21     6     1   ar
    22    17    13   ar
    23    17    18    1
@<TRIPOS>MOLECULE
*****
 22 23 0 0 0
SMALL
GASTEIGER

@<TRIPOS>ATOM
      1 C          66.3640   92.9060   11.4414 C.ar    1  UNL1        0.1754
      2 C          65.2553   92.3706   10.5846 C.ar    1  UNL1        0.0403
      3 C          64.1279   91.6036   11.2096 C.ar    1  UNL1        0.0063
      4 C          64.1093   91.3719   12.6914 C.ar    1  UNL1        0.0403
      5 C          65.2179   91.9073   13.5482 C.ar    1  UNL1        0.1754
      6 C          66.3453   92.6743   12.9232 C.ar    1  UNL1        0.2061
      7 C          67.5479   93.8430    9.3271 C.3     1  UNL1        0.2526
      8 O          67.4914   93.6730   10.8163 O.3     1  UNL1       -0.4683
      9 C          63.0192   91.0682   10.3527 C.2     1  UNL1        0.0035
     10 C          62.0015   90.1354   10.9394 C.2     1  UNL1        0.0435
     11 C          60.8929   89.6000   10.0826 C.2     1  UNL1        0.2111
     12 O          59.6600   90.4225    9.8509 O.2     1  UNL1       -0.2850
     13 C          61.0170   88.2422    9.4574 C.ar    1  UNL1        0.0961
     14 C          62.1899   87.3160    9.5863 C.ar    1  UNL1        0.0218
     15 C          61.8878   86.0735    8.8021 C.ar    1  UNL1        0.0200
     16 C          60.5283   86.2318    8.1885 C.ar    1  UNL1        0.0725
     17 N          59.9901   87.5721    8.5935 N.ar    1  UNL1       -0.3495
     18 H          59.1163   87.9462    8.3372 H       1  UNL1        0.1661
     19 O          65.1993   91.6756   15.0302 O.3     1  UNL1       -0.4683
     20 C          64.0308   90.9829   15.6664 C.3     1  UNL1        0.2526
     21 O          67.4540   93.2097   13.7801 O.3     1  UNL1       -0.4654
     22 C          68.3609   92.2641   14.5104 C.3     1  UNL1        0.2528
@<TRIPOS>BOND
     1     7     8    1
     2     8     1    1
     3     1     2   ar
     4     2     3   ar
     5     3     9    1
     6     9    10    2
     7    10    11    1
     8    11    12    2
     9    11    13    1
    10    13    14   ar
    11    14    15   ar
    12    15    16   ar
    13    16    17   ar
    14     3     4   ar
    15     4     5   ar
    16     5    19    1
    17    19    20    1
    18     5     6   ar
    19     6    21    1
    20    21    22    1
    21     6     1   ar
    22    17    13   ar
    23    17    18    1
@<TRIPOS>MOLECULE
*****
 22 23 0 0 0
SMALL
GASTEIGER

@<TRIPOS>ATOM
      1 C          65.4100   91.6341   13.5107 C.ar    1  UNL1        0.1754
      2 C          64.2279   91.1978   12.6969 C.ar    1  UNL1        0.0403
      3 C          64.1325   91.5781   11.2491 C.ar    1  UNL1        0.0063
      4 C          65.2192   92.3948   10.6150 C.ar    1  UNL1        0.0403
      5 C          66.4013   92.8310   11.4287 C.ar    1  UNL1        0.1754
      6 C          66.4967   92.4507   12.8766 C.ar    1  UNL1        0.2061
      7 C          64.2638   91.1746   15.7965 C.3     1  UNL1        0.2526
      8 O          65.5054   91.2538   14.9585 O.3     1  UNL1       -0.4683
      9 C          62.9503   91.1418   10.4353 C.2     1  UNL1        0.0035
     10 C          62.1740   89.9220   10.8347 C.2     1  UNL1        0.0435
     11 C          60.9919   89.4856   10.0210 C.2     1  UNL1        0.2111
     12 O          59.7932   90.3794    9.9005 O.2     1  UNL1       -0.2850
     13 C          61.0083   88.1555    9.3278 C.ar    1  UNL1        0.0961
     14 C          62.0867   87.1185    9.4353 C.ar    1  UNL1        0.0218
     15 C          61.6941   85.9510    8.5793 C.ar    1  UNL1        0.0200
     16 C          60.3730   86.2664    7.9428 C.ar    1  UNL1        0.0725
     17 N          59.9492   87.6289    8.4054 N.ar    1  UNL1       -0.3495
     18 H          59.1212   88.0955    8.1486 H       1  UNL1        0.1661
     19 O          67.4881   93.6477   10.7946 O.3     1  UNL1       -0.4683
     20 C          67.8711   93.4053    9.3648 C.3     1  UNL1        0.2526
     21 O          67.6789   92.8871   13.6903 O.3     1  UNL1       -0.4654
     22 C          67.4703   93.5827   15.0028 C.3     1  UNL1        0.2528
@<TRIPOS>BOND
     1     7     8    1
     2     8     1    1
     3     1     2   ar
     4     2     3   ar
     5     3     9    1
     6     9    10    2
     7    10    11    1
     8    11    12    2
     9    11    13    1
    10    13    14   ar
    11    14    15   ar
    12    15    16   ar
    13    16    17   ar
    14     3     4   ar
    15     4     5   ar
    16     5    19    1
    17    19    20    1
    18     5     6   ar
    19     6    21    1
    20    21    22    1
    21     6     1   ar
    22    17    13   ar
    23    17    18    1
@<TRIPOS>MOLECULE
*****
 22 23 0 0 0
SMALL
GASTEIGER

@<TRIPOS>ATOM
      1 C          61.6185   88.8086   11.3225 C.ar    1  UNL1        0.1754
      2 C          62.2510   87.4487   11.3009 C.ar    1  UNL1        0.0403
      3 C          61.8548   86.4538   10.2505 C.ar    1  UNL1        0.0063
      4 C          60.8261   86.8189    9.2217 C.ar    1  UNL1        0.0403
      5 C          60.1936   88.1788    9.2434 C.ar    1  UNL1        0.1754
      6 C          60.5897   89.1736   10.2938 C.ar    1  UNL1        0.2061
      7 C          63.4063   89.7893   12.9324 C.3     1  UNL1        0.2526
      8 O          62.0147   89.8034   12.3729 O.3     1  UNL1       -0.4683
      9 C          62.4874   85.0939   10.2289 C.2     1  UNL1        0.0035
     10 C          62.9131   84.4443   11.5122 C.2     1  UNL1        0.0435
     11 C          63.5457   83.0844   11.4906 C.2     1  UNL1        0.2111
     12 O          64.7428   82.8277   10.6240 O.2     1  UNL1       -0.2850
     13 C          62.9812   81.9811   12.3357 C.ar    1  UNL1        0.0961
     14 C          62.3096   82.1456   13.6669 C.ar    1  UNL1        0.0218
     15 C          61.9025   80.7858   14.1519 C.ar    1  UNL1        0.0200
     16 C          62.3225   79.7809   13.1205 C.ar    1  UNL1        0.0725
     17 N          62.9891   80.5197   11.9981 N.ar    1  UNL1       -0.3495
     18 H          63.3658   80.1161   11.1829 H       1  UNL1        0.1661
     19 O          59.1648   88.5439    8.2146 O.3     1  UNL1       -0.4683
     20 C          59.5765   89.2642    6.9649 C.3     1  UNL1        0.2526
     21 O          59.9571   90.5336   10.3154 O.3     1  UNL1       -0.4654
     22 C          59.0614   90.9261   11.4527 C.3     1  UNL1        0.2528
@<TRIPOS>BOND
     1     7     8    1
     2     8     1    1
     3     1     2   ar
     4     2     3   ar
     5     3     9    1
     6     9    10    2
     7    10    11    1
     8    11    12    2
     9    11    13    1
    10    13    14   ar
    11    14    15   ar
    12    15    16   ar
    13    16    17   ar
    14     3     4   ar
    15     4     5   ar
    16     5    19    1
    17    19    20    1
    18     5     6   ar
    19     6    21    1
    20    21    22    1
    21     6     1   ar
    22    17    13   ar
    23    17    18    1
@<TRIPOS>MOLECULE
*****
 22 23 0 0 0
SMALL
GASTEIGER

@<TRIPOS>ATOM
      1 C          60.1974   88.1645    9.2294 C.ar    1  UNL1        0.1754
      2 C          60.8456   86.8119    9.2121 C.ar    1  UNL1        0.0403
      3 C          61.8772   86.4614   10.2432 C.ar    1  UNL1        0.0063
      4 C          62.2606   87.4634   11.2914 C.ar    1  UNL1        0.0403
      5 C          61.6124   88.8160   11.3087 C.ar    1  UNL1        0.1754
      6 C          60.5808   89.1665   10.2777 C.ar    1  UNL1        0.2061
      7 C          59.5600   89.2911    6.9768 C.3     1  UNL1        0.2526
      8 O          59.1659   88.5150    8.1984 O.3     1  UNL1       -0.4683
      9 C          62.5254   85.1087   10.2259 C.2     1  UNL1        0.0035
     10 C          62.8607   84.4212   11.5162 C.2     1  UNL1        0.0435
     11 C          63.5089   83.0686   11.4989 C.2     1  UNL1        0.2111
     12 O          64.7131   82.8249   10.6383 O.2     1  UNL1       -0.2850
     13 C          62.9529   81.9597   12.3422 C.ar    1  UNL1        0.0961
     14 C          62.2667   82.1182   13.6666 C.ar    1  UNL1        0.0218
     15 C          61.8752   80.7540   14.1521 C.ar    1  UNL1        0.0200
     16 C          62.3194   79.7523   13.1278 C.ar    1  UNL1        0.0725
     17 N          62.9854   80.4975   12.0092 N.ar    1  UNL1       -0.3495
     18 H          63.3754   80.0971   11.1987 H       1  UNL1        0.1661
     19 O          61.9957   89.8181   12.3570 O.3     1  UNL1       -0.4683
     20 C          63.3811   89.8094   12.9319 C.3     1  UNL1        0.2526
     21 O          59.9326   90.5192   10.2950 O.3     1  UNL1       -0.4654
     22 C          59.0547   90.9155   11.4449 C.3     1  UNL1        0.2528
@<TRIPOS>BOND
     1     7     8    1
     2     8     1    1
     3     1     2   ar
     4     2     3   ar
     5     3     9    1
     6     9    10    2
     7    10    11    1
     8    11    12    2
     9    11    13    1
    10    13    14   ar
    11    14    15   ar
    12    15    16   ar
    13    16    17   ar
    14     3     4   ar
    15     4     5   ar
    16     5    19    1
    17    19    20    1
    18     5     6   ar
    19     6    21    1
    20    21    22    1
    21     6     1   ar
    22    17    13   ar
    23    17    18    1
@<TRIPOS>MOLECULE
*****
 22 23 0 0 0
SMALL
GASTEIGER

@<TRIPOS>ATOM
      1 C          63.7375   85.1079   13.5153 C.ar    1  UNL1        0.1754
      2 C          64.1571   86.2204   14.4298 C.ar    1  UNL1        0.0403
      3 C          63.9243   87.6475   14.0309 C.ar    1  UNL1        0.0063
      4 C          63.2719   87.9621   12.7174 C.ar    1  UNL1        0.0403
      5 C          62.8523   86.8497   11.8029 C.ar    1  UNL1        0.1754
      6 C          63.0851   85.4226   12.2018 C.ar    1  UNL1        0.2061
      7 C          62.8764   82.9003   14.5804 C.3     1  UNL1        0.2526
      8 O          63.9704   83.6808   13.9142 O.3     1  UNL1       -0.4683
      9 C          64.3439   88.7599   14.9455 C.2     1  UNL1        0.0035
     10 C          64.0409   90.1836   14.5829 C.2     1  UNL1        0.0435
     11 C          64.4605   91.2960   15.4975 C.2     1  UNL1        0.2111
     12 O          63.5166   91.7984   16.5495 O.2     1  UNL1       -0.2850
     13 C          65.8239   91.9060   15.3600 C.ar    1  UNL1        0.0961
     14 C          66.8163   91.6115   14.2745 C.ar    1  UNL1        0.0218
     15 C          68.0401   92.4411   14.5276 C.ar    1  UNL1        0.0200
     16 C          67.8041   93.2484   15.7696 C.ar    1  UNL1        0.0725
     17 N          66.4344   92.9177   16.2840 N.ar    1  UNL1       -0.3495
     18 H          66.0106   93.2979   17.0872 H       1  UNL1        0.1661
     19 O          62.1998   87.1644   10.4893 O.3     1  UNL1       -0.4683
     20 C          61.8892   88.5866   10.1278 C.3     1  UNL1        0.2526
     21 O          62.6655   84.3102   11.2872 O.3     1  UNL1       -0.4654
     22 C          63.6869   83.6088   10.4417 C.3     1  UNL1        0.2528
@<TRIPOS>BOND
     1     7     8    1
     2     8     1    1
     3     1     2   ar
     4     2     3   ar
     5     3     9    1
     6     9    10    2
     7    10    11    1
     8    11    12    2
     9    11    13    1
    10    13    14   ar
    11    14    15   ar
    12    15    16   ar
    13    16    17   ar
    14     3     4   ar
    15     4     5   ar
    16     5    19    1
    17    19    20    1
    18     5     6   ar
    19     6    21    1
    20    21    22    1
    21     6     1   ar
    22    17    13   ar
    23    17    18    1
@<TRIPOS>MOLECULE
*****
 22 23 0 0 0
SMALL
GASTEIGER

@<TRIPOS>ATOM
      1 C          60.4328   86.4318    8.3035 C.ar    1  UNL1        0.1754
      2 C          61.2603   85.8376    9.4044 C.ar    1  UNL1        0.0403
      3 C          61.5565   86.6400   10.6367 C.ar    1  UNL1        0.0063
      4 C          61.0251   88.0366   10.7680 C.ar    1  UNL1        0.0403
      5 C          60.1976   88.6307    9.6671 C.ar    1  UNL1        0.1754
      6 C          59.9014   87.8283    8.4348 C.ar    1  UNL1        0.2061
      7 C          61.1807   84.7144    6.5032 C.3     1  UNL1        0.2526
      8 O          60.1366   85.6294    7.0712 O.3     1  UNL1       -0.4683
      9 C          62.3841   86.0458   11.7377 C.2     1  UNL1        0.0035
     10 C          62.6552   84.5707   11.7596 C.2     1  UNL1        0.0435
     11 C          63.4827   83.9764   12.8605 C.2     1  UNL1        0.2111
     12 O          64.3857   82.8130   12.5756 O.2     1  UNL1       -0.2850
     13 C          63.4074   84.5456   14.2462 C.ar    1  UNL1        0.0961
     14 C          64.4744   85.3493   14.9285 C.ar    1  UNL1        0.0218
     15 C          63.9782   85.7115   16.2970 C.ar    1  UNL1        0.0200
     16 C          62.6046   85.1316   16.4605 C.ar    1  UNL1        0.0725
     17 N          62.2518   84.4110   15.1930 N.ar    1  UNL1       -0.3495
     18 H          61.4096   83.9336   15.0140 H       1  UNL1        0.1661
     19 O          59.6662   90.0273    9.7983 O.3     1  UNL1       -0.4683
     20 C          59.5955   90.6792   11.1474 C.3     1  UNL1        0.2526
     21 O          59.0738   88.4225    7.3338 O.3     1  UNL1       -0.4654
     22 C          59.6169   89.5566    6.5160 C.3     1  UNL1        0.2528
@<TRIPOS>BOND
     1     7     8    1
     2     8     1    1
     3     1     2   ar
     4     2     3   ar
     5     3     9    1
     6     9    10    2
     7    10    11    1
     8    11    12    2
     9    11    13    1
    10    13    14   ar
    11    14    15   ar
    12    15    16   ar
    13    16    17   ar
    14     3     4   ar
    15     4     5   ar
    16     5    19    1
    17    19    20    1
    18     5     6   ar
    19     6    21    1
    20    21    22    1
    21     6     1   ar
    22    17    13   ar
    23    17    18    1
@<TRIPOS>MOLECULE
*****
 22 23 0 0 0
SMALL
GASTEIGER

@<TRIPOS>ATOM
      1 C          61.2954   86.9688    9.4595 C.ar    1  UNL1        0.1754
      2 C          61.6749   85.7116   10.1842 C.ar    1  UNL1        0.0403
      3 C          62.4179   85.7907   11.4848 C.ar    1  UNL1        0.0063
      4 C          62.7814   87.1272   12.0608 C.ar    1  UNL1        0.0403
      5 C          62.4019   88.3844   11.3361 C.ar    1  UNL1        0.1754
      6 C          61.6589   88.3053   10.0355 C.ar    1  UNL1        0.2061
      7 C          59.0525   86.8999    8.1501 C.3     1  UNL1        0.2526
      8 O          60.5524   86.8897    8.1588 O.3     1  UNL1       -0.4683
      9 C          62.7974   84.5334   12.2095 C.2     1  UNL1        0.0035
     10 C          63.2374   84.5971   13.6421 C.2     1  UNL1        0.0435
     11 C          63.6169   83.3399   14.3668 C.2     1  UNL1        0.2111
     12 O          64.6705   83.3781   15.4338 O.2     1  UNL1       -0.2850
     13 C          62.9428   82.0443   14.0246 C.ar    1  UNL1        0.0961
     14 C          63.4128   81.0478   13.0067 C.ar    1  UNL1        0.0218
     15 C          62.4408   79.9054   12.9932 C.ar    1  UNL1        0.0200
     16 C          61.3700   80.1959   14.0026 C.ar    1  UNL1        0.0725
     17 N          61.6802   81.5178   14.6400 N.ar    1  UNL1       -0.3495
     18 H          61.1486   81.9619   15.3396 H       1  UNL1        0.1661
     19 O          62.7654   89.7210   11.9120 O.3     1  UNL1       -0.4683
     20 C          63.5990   89.7997   13.1566 C.3     1  UNL1        0.2526
     21 O          61.2794   89.5626    9.3108 O.3     1  UNL1       -0.4654
     22 C          60.0525   90.3226    9.7195 C.3     1  UNL1        0.2528
@<TRIPOS>BOND
     1     7     8    1
     2     8     1    1
     3     1     2   ar
     4     2     3   ar
     5     3     9    1
     6     9    10    2
     7    10    11    1
     8    11    12    2
     9    11    13    1
    10    13    14   ar
    11    14    15   ar
    12    15    16   ar
    13    16    17   ar
    14     3     4   ar
    15     4     5   ar
    16     5    19    1
    17    19    20    1
    18     5     6   ar
    19     6    21    1
    20    21    22    1
    21     6     1   ar
    22    17    13   ar
    23    17    18    1
@<TRIPOS>MOLECULE
*****
 22 23 0 0 0
SMALL
GASTEIGER

@<TRIPOS>ATOM
      1 C          60.2885   86.4841    8.3446 C.ar    1  UNL1        0.1754
      2 C          61.0713   85.7789    9.4122 C.ar    1  UNL1        0.0403
      3 C          61.4093   86.4908   10.6885 C.ar    1  UNL1        0.0063
      4 C          60.9645   87.9080   10.8972 C.ar    1  UNL1        0.0403
      5 C          60.1817   88.6133    9.8296 C.ar    1  UNL1        0.1754
      6 C          59.8437   87.9013    8.5533 C.ar    1  UNL1        0.2061
      7 C          60.9188   84.7903    6.4781 C.3     1  UNL1        0.2526
      8 O          59.9505   85.7722    7.0683 O.3     1  UNL1       -0.4683
      9 C          62.1921   85.7854   11.7561 C.2     1  UNL1        0.0035
     10 C          62.7370   84.4111   11.5023 C.2     1  UNL1        0.0435
     11 C          63.5197   83.7058   12.5699 C.2     1  UNL1        0.2111
     12 O          64.6340   84.4184   13.2775 O.2     1  UNL1       -0.2850
     13 C          63.1883   82.2878   12.9298 C.ar    1  UNL1        0.0961
     14 C          62.8562   81.1879   11.9655 C.ar    1  UNL1        0.0218
     15 C          62.5934   79.9411   12.7571 C.ar    1  UNL1        0.0200
     16 C          62.7631   80.2705   14.2106 C.ar    1  UNL1        0.0725
     17 N          63.1308   81.7208   14.3173 N.ar    1  UNL1       -0.3495
     18 H          63.3039   82.2140   15.1516 H       1  UNL1        0.1661
     19 O          59.7369   90.0306   10.0382 O.3     1  UNL1       -0.4683
     20 C          59.5085   90.5482   11.4274 C.3     1  UNL1        0.2526
     21 O          59.0609   88.6067    7.4857 O.3     1  UNL1       -0.4654
     22 C          59.7401   89.6000    6.5901 C.3     1  UNL1        0.2528
@<TRIPOS>BOND
     1     7     8    1
     2     8     1    1
     3     1     2   ar
     4     2     3   ar
     5     3     9    1
     6     9    10    2
     7    10    11    1
     8    11    12    2
     9    11    13    1
    10    13    14   ar
    11    14    15   ar
    12    15    16   ar
    13    16    17   ar
    14     3     4   ar
    15     4     5   ar
    16     5    19    1
    17    19    20    1
    18     5     6   ar
    19     6    21    1
    20    21    22    1
    21     6     1   ar
    22    17    13   ar
    23    17    18    1
