@<TRIPOS>MOLECULE
*****
 34 37 0 0 0
SMALL
GASTEIGER

@<TRIPOS>ATOM
      1 N          65.7734   92.3519   12.5546 N.pl3   1  UNL1       -0.2872
      2 C          67.0895   95.0542    9.2057 C.ar    1  UNL1        0.0715
      3 C          67.5958   93.6440    9.2745 C.ar    1  UNL1        0.0051
      4 C          67.1571   92.7432   10.3908 C.ar    1  UNL1        0.0148
      5 C          66.2121   93.2526   11.4383 C.ar    1  UNL1        0.0515
      6 C          65.7057   94.6629   11.3695 C.ar    1  UNL1        0.0148
      7 C          66.1444   95.5637   10.2532 C.ar    1  UNL1        0.0051
      8 F          67.9669   96.8557    6.9731 F       1  UNL1       -0.1659
      9 C          67.5282   95.9550    8.0894 C.3     1  UNL1        0.4186
     10 F          66.8515   95.0556    7.0978 F       1  UNL1       -0.1659
     11 F          68.2048   96.8543    9.0810 F       1  UNL1       -0.1659
     12 C          66.5123   92.3607   13.8599 C.ar    1  UNL1        0.0710
     13 C          67.9634   91.9834   13.9028 C.ar    1  UNL1        0.0180
     14 C          68.7024   91.9922   15.2082 C.ar    1  UNL1        0.0220
     15 C          67.9902   92.3783   16.4706 C.ar    1  UNL1        0.0990
     16 N          66.5390   92.7555   16.4277 N.ar    1  UNL1       -0.2410
     17 C          65.8001   92.7467   15.1224 C.ar    1  UNL1        0.1136
     18 C          64.5957   91.4423   12.3656 C.3     1  UNL1        0.0800
     19 C          64.2604   90.4219   13.4128 C.3     1  UNL1        0.0375
     20 C          63.0828   89.5124   13.2238 C.3     1  UNL1        0.0741
     21 N          62.2403   89.6231   11.9877 N.3     1  UNL1       -0.2689
     22 C          62.5755   90.6434   10.9405 C.3     1  UNL1        0.0741
     23 C          63.7533   91.5530   11.1295 C.3     1  UNL1        0.0375
     24 C          61.0626   88.7134   11.7987 C.3     1  UNL1        0.0991
     25 C          61.0266   87.7644   10.6377 C.ar    1  UNL1       -0.0062
     26 C          59.9582   87.8973    9.5933 C.ar    1  UNL1       -0.0029
     27 C          59.9222   86.9483    8.4322 C.ar    1  UNL1       -0.0003
     28 C          60.9546   85.8664    8.3156 C.ar    1  UNL1        0.0038
     29 C          62.0231   85.7335    9.3600 C.ar    1  UNL1        0.0712
     30 C          62.0590   86.6826   10.5211 C.ar    1  UNL1        0.0009
     31 C          63.0555   84.6516    9.2434 C.3     1  UNL1        0.4186
     32 F          64.0879   83.5698    9.1268 F       1  UNL1       -0.1659
     33 F          62.9451   84.3876   10.7158 F       1  UNL1       -0.1659
     34 F          63.1658   84.9157    7.7710 F       1  UNL1       -0.1659
@<TRIPOS>BOND
     1     8     9    1
     2     9    10    1
     3     9    11    1
     4     9     2    1
     5     2     3   ar
     6     3     4   ar
     7     4     5   ar
     8     5     1    1
     9     1    12    1
    10    12    13   ar
    11    13    14   ar
    12    14    15   ar
    13    15    16   ar
    14    16    17   ar
    15     1    18    1
    16    18    19    1
    17    19    20    1
    18    20    21    1
    19    21    24    1
    20    24    25    1
    21    25    26   ar
    22    26    27   ar
    23    27    28   ar
    24    28    29   ar
    25    29    31    1
    26    31    32    1
    27    31    33    1
    28    31    34    1
    29    29    30   ar
    30    21    22    1
    31    22    23    1
    32     5     6   ar
    33     6     7   ar
    34     7     2   ar
    35    17    12   ar
    36    23    18    1
    37    30    25   ar
@<TRIPOS>MOLECULE
*****
 34 37 0 0 0
SMALL
GASTEIGER

@<TRIPOS>ATOM
      1 N          61.9650   87.5547   10.3733 N.pl3   1  UNL1       -0.2872
      2 C          63.0378   83.4482   11.8686 C.ar    1  UNL1        0.0715
      3 C          62.4138   84.4458   12.7988 C.ar    1  UNL1        0.0051
      4 C          62.0562   85.8146   12.3004 C.ar    1  UNL1        0.0148
      5 C          62.3226   86.1859   10.8717 C.ar    1  UNL1        0.0515
      6 C          62.9467   85.1883    9.9415 C.ar    1  UNL1        0.0148
      7 C          63.3042   83.8195   10.4399 C.ar    1  UNL1        0.0051
      8 F          63.7530   80.7105   12.8654 F       1  UNL1       -0.1659
      9 C          63.3954   82.0794   12.3670 C.3     1  UNL1        0.4186
     10 F          61.9544   81.8223   12.6947 F       1  UNL1       -0.1659
     11 F          64.8364   82.3365   12.0393 F       1  UNL1       -0.1659
     12 C          60.8924   87.7193    9.3378 C.ar    1  UNL1        0.0710
     13 C          60.2166   86.5116    8.7594 C.ar    1  UNL1        0.0180
     14 C          59.1439   86.6762    7.7238 C.ar    1  UNL1        0.0220
     15 C          58.7471   88.0486    7.2667 C.ar    1  UNL1        0.0990
     16 N          59.4229   89.2564    7.8451 N.ar    1  UNL1       -0.2410
     17 C          60.4956   89.0918    8.8806 C.ar    1  UNL1        0.1136
     18 C          62.6801   88.7589   10.9104 C.3     1  UNL1        0.0800
     19 C          62.8619   89.9710   10.0455 C.3     1  UNL1        0.0375
     20 C          63.5769   91.1752   10.5826 C.3     1  UNL1        0.0741
     21 N          64.1102   91.1675   11.9846 N.3     1  UNL1       -0.2689
     22 C          63.9284   89.9555   12.8495 C.3     1  UNL1        0.0741
     23 C          63.2133   88.7512   12.3124 C.3     1  UNL1        0.0375
     24 C          64.8252   92.3718   12.5217 C.3     1  UNL1        0.0991
     25 C          65.7236   93.1720   11.6259 C.ar    1  UNL1       -0.0062
     26 C          65.6851   94.6709   11.6704 C.ar    1  UNL1       -0.0029
     27 C          66.5835   95.4711   10.7746 C.ar    1  UNL1       -0.0003
     28 C          67.5204   94.7725    9.8343 C.ar    1  UNL1        0.0038
     29 C          67.5590   93.2737    9.7898 C.ar    1  UNL1        0.0712
     30 C          66.6605   92.4734   10.6857 C.ar    1  UNL1        0.0009
     31 C          68.4959   92.5751    8.8496 C.3     1  UNL1        0.4186
     32 F          69.4328   91.8765    7.9093 F       1  UNL1       -0.1659
     33 F          68.2054   93.6029    7.7964 F       1  UNL1       -0.1659
     34 F          68.7863   91.5472    9.9027 F       1  UNL1       -0.1659
@<TRIPOS>BOND
     1     8     9    1
     2     9    10    1
     3     9    11    1
     4     9     2    1
     5     2     3   ar
     6     3     4   ar
     7     4     5   ar
     8     5     1    1
     9     1    12    1
    10    12    13   ar
    11    13    14   ar
    12    14    15   ar
    13    15    16   ar
    14    16    17   ar
    15     1    18    1
    16    18    19    1
    17    19    20    1
    18    20    21    1
    19    21    24    1
    20    24    25    1
    21    25    26   ar
    22    26    27   ar
    23    27    28   ar
    24    28    29   ar
    25    29    31    1
    26    31    32    1
    27    31    33    1
    28    31    34    1
    29    29    30   ar
    30    21    22    1
    31    22    23    1
    32     5     6   ar
    33     6     7   ar
    34     7     2   ar
    35    17    12   ar
    36    23    18    1
    37    30    25   ar
@<TRIPOS>MOLECULE
*****
 34 37 0 0 0
SMALL
GASTEIGER

@<TRIPOS>ATOM
      1 N          63.3167   89.1784   12.6833 N.pl3   1  UNL1       -0.2872
      2 C          66.0197   92.4482   14.1842 C.ar    1  UNL1        0.0715
      3 C          65.4691   92.5109   12.7903 C.ar    1  UNL1        0.0051
      4 C          64.5682   91.4210   12.2900 C.ar    1  UNL1        0.0148
      5 C          64.2177   90.2683   13.1836 C.ar    1  UNL1        0.0515
      6 C          64.7682   90.2056   14.5775 C.ar    1  UNL1        0.0148
      7 C          65.6692   91.2956   15.0778 C.ar    1  UNL1        0.0051
      8 F          67.8216   94.6281   15.1848 F       1  UNL1       -0.1659
      9 C          66.9206   93.5381   14.6845 C.3     1  UNL1        0.4186
     10 F          67.2888   92.6912   15.8666 F       1  UNL1       -0.1659
     11 F          66.5525   94.3850   13.5025 F       1  UNL1       -0.1659
     12 C          62.1732   89.5102   11.7711 C.ar    1  UNL1        0.0710
     13 C          62.3549   89.4378   10.2839 C.ar    1  UNL1        0.0180
     14 C          61.2113   89.7697    9.3716 C.ar    1  UNL1        0.0220
     15 C          59.8861   90.1739    9.9466 C.ar    1  UNL1        0.0990
     16 N          59.7045   90.2463   11.4338 N.ar    1  UNL1       -0.2410
     17 C          60.8480   89.9145   12.3460 C.ar    1  UNL1        0.1136
     18 C          63.5593   87.7567   13.0953 C.3     1  UNL1        0.0800
     19 C          63.0306   86.6318   12.2554 C.3     1  UNL1        0.0375
     20 C          63.2732   85.2101   12.6673 C.3     1  UNL1        0.0741
     21 N          64.0443   84.9131   13.9192 N.3     1  UNL1       -0.2689
     22 C          64.5730   86.0378   14.7590 C.3     1  UNL1        0.0741
     23 C          64.3304   87.4596   14.3471 C.3     1  UNL1        0.0375
     24 C          64.2869   83.4912   14.3311 C.3     1  UNL1        0.0991
     25 C          63.3761   82.4035   13.8439 C.ar    1  UNL1       -0.0062
     26 C          62.2057   81.9753   14.6787 C.ar    1  UNL1       -0.0029
     27 C          61.2950   80.8876   14.1916 C.ar    1  UNL1       -0.0003
     28 C          61.5546   80.2280   12.8696 C.ar    1  UNL1        0.0038
     29 C          62.7250   80.6561   12.0348 C.ar    1  UNL1        0.0712
     30 C          63.6358   81.7439   12.5220 C.ar    1  UNL1        0.0009
     31 C          62.9847   79.9965   10.7129 C.3     1  UNL1        0.4186
     32 F          63.2444   79.3370    9.3910 F       1  UNL1       -0.1659
     33 F          62.5932   78.6716   11.2971 F       1  UNL1       -0.1659
     34 F          63.3762   81.3215   10.1287 F       1  UNL1       -0.1659
@<TRIPOS>BOND
     1     8     9    1
     2     9    10    1
     3     9    11    1
     4     9     2    1
     5     2     3   ar
     6     3     4   ar
     7     4     5   ar
     8     5     1    1
     9     1    12    1
    10    12    13   ar
    11    13    14   ar
    12    14    15   ar
    13    15    16   ar
    14    16    17   ar
    15     1    18    1
    16    18    19    1
    17    19    20    1
    18    20    21    1
    19    21    24    1
    20    24    25    1
    21    25    26   ar
    22    26    27   ar
    23    27    28   ar
    24    28    29   ar
    25    29    31    1
    26    31    32    1
    27    31    33    1
    28    31    34    1
    29    29    30   ar
    30    21    22    1
    31    22    23    1
    32     5     6   ar
    33     6     7   ar
    34     7     2   ar
    35    17    12   ar
    36    23    18    1
    37    30    25   ar
@<TRIPOS>MOLECULE
*****
 34 37 0 0 0
SMALL
GASTEIGER

@<TRIPOS>ATOM
      1 N          65.9274   92.3141   12.6581 N.pl3   1  UNL1       -0.2872
      2 C          67.0152   95.0368    9.2443 C.ar    1  UNL1        0.0715
      3 C          66.2206   95.5656   10.4015 C.ar    1  UNL1        0.0051
      4 C          65.8580   94.6580   11.5394 C.ar    1  UNL1        0.0148
      5 C          66.2900   93.2217   11.5201 C.ar    1  UNL1        0.0515
      6 C          67.0846   92.6930   10.3630 C.ar    1  UNL1        0.0148
      7 C          67.4472   93.6006    9.2251 C.ar    1  UNL1        0.0051
      8 F          67.7404   96.8520    6.9685 F       1  UNL1       -0.1659
      9 C          67.3778   95.9444    8.1064 C.3     1  UNL1        0.4186
     10 F          66.2440   96.8559    8.4721 F       1  UNL1       -0.1659
     11 F          68.5115   95.0329    7.7407 F       1  UNL1       -0.1659
     12 C          66.7364   92.3348   13.9210 C.ar    1  UNL1        0.0710
     13 C          66.0907   92.7195   15.2191 C.ar    1  UNL1        0.0180
     14 C          66.8998   92.7401   16.4821 C.ar    1  UNL1        0.0220
     15 C          68.3545   92.3762   16.4469 C.ar    1  UNL1        0.0990
     16 N          69.0002   91.9915   15.1488 N.ar    1  UNL1       -0.2410
     17 C          68.1912   91.9708   13.8858 C.ar    1  UNL1        0.1136
     18 C          64.7558   91.3859   12.5330 C.3     1  UNL1        0.0800
     19 C          64.4785   90.3789   13.6097 C.3     1  UNL1        0.0375
     20 C          63.3069   89.4507   13.4847 C.3     1  UNL1        0.0741
     21 N          62.4126   89.5293   12.2830 N.3     1  UNL1       -0.2689
     22 C          62.6898   90.5362   11.2064 C.3     1  UNL1        0.0741
     23 C          63.8615   91.4646   11.3314 C.3     1  UNL1        0.0375
     24 C          61.2409   88.6010   12.1581 C.3     1  UNL1        0.0991
     25 C          61.0122   87.8499   10.8800 C.ar    1  UNL1       -0.0062
     26 C          61.5375   86.4533   10.7265 C.ar    1  UNL1       -0.0029
     27 C          61.3088   85.7022    9.4485 C.ar    1  UNL1       -0.0003
     28 C          60.5546   86.3476    8.3239 C.ar    1  UNL1        0.0038
     29 C          60.0292   87.7442    8.4774 C.ar    1  UNL1        0.0712
     30 C          60.2580   88.4953    9.7555 C.ar    1  UNL1        0.0009
     31 C          59.2751   88.3896    7.3528 C.3     1  UNL1        0.4186
     32 F          58.5210   89.0351    6.2283 F       1  UNL1       -0.1659
     33 F          60.2188   89.5550    7.3888 F       1  UNL1       -0.1659
     34 F          58.3314   87.2243    7.3168 F       1  UNL1       -0.1659
@<TRIPOS>BOND
     1     8     9    1
     2     9    10    1
     3     9    11    1
     4     9     2    1
     5     2     3   ar
     6     3     4   ar
     7     4     5   ar
     8     5     1    1
     9     1    12    1
    10    12    13   ar
    11    13    14   ar
    12    14    15   ar
    13    15    16   ar
    14    16    17   ar
    15     1    18    1
    16    18    19    1
    17    19    20    1
    18    20    21    1
    19    21    24    1
    20    24    25    1
    21    25    26   ar
    22    26    27   ar
    23    27    28   ar
    24    28    29   ar
    25    29    31    1
    26    31    32    1
    27    31    33    1
    28    31    34    1
    29    29    30   ar
    30    21    22    1
    31    22    23    1
    32     5     6   ar
    33     6     7   ar
    34     7     2   ar
    35    17    12   ar
    36    23    18    1
    37    30    25   ar
@<TRIPOS>MOLECULE
*****
 34 37 0 0 0
SMALL
GASTEIGER

@<TRIPOS>ATOM
      1 N          62.0127   86.8467   10.8146 N.pl3   1  UNL1       -0.2872
      2 C          63.2007   83.0138   12.8511 C.ar    1  UNL1        0.0715
      3 C          63.3468   83.1497   11.3645 C.ar    1  UNL1        0.0051
      4 C          62.9508   84.4273   10.6857 C.ar    1  UNL1        0.0148
      5 C          62.4087   85.5691   11.4934 C.ar    1  UNL1        0.0515
      6 C          62.2626   85.4331   12.9801 C.ar    1  UNL1        0.0148
      7 C          62.6586   84.1555   13.6589 C.ar    1  UNL1        0.0051
      8 F          63.9928   80.4585   14.2088 F       1  UNL1       -0.1659
      9 C          63.5967   81.7362   13.5300 C.3     1  UNL1        0.4186
     10 F          64.9163   81.7666   12.8174 F       1  UNL1       -0.1659
     11 F          62.2772   81.7057   14.2425 F       1  UNL1       -0.1659
     12 C          60.9589   86.8335    9.7472 C.ar    1  UNL1        0.0710
     13 C          61.1273   85.9621    8.5379 C.ar    1  UNL1        0.0180
     14 C          60.0734   85.9489    7.4704 C.ar    1  UNL1        0.0220
     15 C          58.8514   86.8070    7.6123 C.ar    1  UNL1        0.0990
     16 N          58.6831   87.6784    8.8216 N.ar    1  UNL1       -0.2410
     17 C          59.7368   87.6916    9.8890 C.ar    1  UNL1        0.1136
     18 C          62.6704   88.1376   11.2032 C.3     1  UNL1        0.0800
     19 C          62.7071   89.2821   10.2342 C.3     1  UNL1        0.0375
     20 C          63.3648   90.5729   10.6228 C.3     1  UNL1        0.0741
     21 N          63.9858   90.7194   11.9803 N.3     1  UNL1       -0.2689
     22 C          63.9491   89.5750   12.9493 C.3     1  UNL1        0.0741
     23 C          63.2913   88.2840   12.5607 C.3     1  UNL1        0.0375
     24 C          64.6435   92.0103   12.3689 C.3     1  UNL1        0.0991
     25 C          65.7508   92.5711   11.5267 C.ar    1  UNL1       -0.0062
     26 C          67.0875   91.8911   11.4955 C.ar    1  UNL1       -0.0029
     27 C          68.1948   92.4519   10.6534 C.ar    1  UNL1       -0.0003
     28 C          67.9655   93.6928    9.8423 C.ar    1  UNL1        0.0038
     29 C          66.6289   94.3728    9.8735 C.ar    1  UNL1        0.0712
     30 C          65.5215   93.8119   10.7157 C.ar    1  UNL1        0.0009
     31 C          66.3996   95.6136    9.0625 C.3     1  UNL1        0.4186
     32 F          66.1702   96.8544    8.2515 F       1  UNL1       -0.1659
     33 F          66.9402   94.9195    7.8476 F       1  UNL1       -0.1659
     34 F          65.8589   96.3077   10.2773 F       1  UNL1       -0.1659
@<TRIPOS>BOND
     1     8     9    1
     2     9    10    1
     3     9    11    1
     4     9     2    1
     5     2     3   ar
     6     3     4   ar
     7     4     5   ar
     8     5     1    1
     9     1    12    1
    10    12    13   ar
    11    13    14   ar
    12    14    15   ar
    13    15    16   ar
    14    16    17   ar
    15     1    18    1
    16    18    19    1
    17    19    20    1
    18    20    21    1
    19    21    24    1
    20    24    25    1
    21    25    26   ar
    22    26    27   ar
    23    27    28   ar
    24    28    29   ar
    25    29    31    1
    26    31    32    1
    27    31    33    1
    28    31    34    1
    29    29    30   ar
    30    21    22    1
    31    22    23    1
    32     5     6   ar
    33     6     7   ar
    34     7     2   ar
    35    17    12   ar
    36    23    18    1
    37    30    25   ar
@<TRIPOS>MOLECULE
*****
 34 37 0 0 0
SMALL
GASTEIGER

@<TRIPOS>ATOM
      1 N          62.0442   86.7621   10.7173 N.pl3   1  UNL1       -0.2872
      2 C          63.3513   82.9737   12.7641 C.ar    1  UNL1        0.0715
      3 C          63.6612   83.1869   11.3121 C.ar    1  UNL1        0.0051
      4 C          63.2255   84.4497   10.6298 C.ar    1  UNL1        0.0148
      5 C          62.4799   85.4993   11.3996 C.ar    1  UNL1        0.0515
      6 C          62.1701   85.2860   12.8516 C.ar    1  UNL1        0.0148
      7 C          62.6058   84.0232   13.5339 C.ar    1  UNL1        0.0051
      8 F          64.2228   80.4481   14.1286 F       1  UNL1       -0.1659
      9 C          63.7871   81.7109   13.4464 C.3     1  UNL1        0.4186
     10 F          63.3379   80.9137   12.2578 F       1  UNL1       -0.1659
     11 F          64.2362   82.5080   14.6350 F       1  UNL1       -0.1659
     12 C          61.0475   86.7042    9.5979 C.ar    1  UNL1        0.0710
     13 C          61.3461   85.8980    8.3687 C.ar    1  UNL1        0.0180
     14 C          60.3493   85.8402    7.2492 C.ar    1  UNL1        0.0220
     15 C          59.0540   86.5886    7.3590 C.ar    1  UNL1        0.0990
     16 N          58.7554   87.3948    8.5882 N.ar    1  UNL1       -0.2410
     17 C          59.7521   87.4526    9.7076 C.ar    1  UNL1        0.1136
     18 C          62.6052   88.0827   11.1545 C.3     1  UNL1        0.0800
     19 C          62.5365   89.2675   10.2370 C.3     1  UNL1        0.0375
     20 C          63.0975   90.5881   10.6741 C.3     1  UNL1        0.0741
     21 N          63.7272   90.7241   12.0288 N.3     1  UNL1       -0.2689
     22 C          63.7959   89.5394   12.9462 C.3     1  UNL1        0.0741
     23 C          63.2349   88.2187   12.5091 C.3     1  UNL1        0.0375
     24 C          64.2882   92.0448   12.4659 C.3     1  UNL1        0.0991
     25 C          65.2541   92.1071   13.6118 C.ar    1  UNL1       -0.0062
     26 C          64.7438   92.1368   15.0220 C.ar    1  UNL1       -0.0029
     27 C          65.7096   92.1990   16.1680 C.ar    1  UNL1       -0.0003
     28 C          67.1859   92.2316   15.9037 C.ar    1  UNL1        0.0038
     29 C          67.6961   92.2019   14.4935 C.ar    1  UNL1        0.0712
     30 C          66.7302   92.1396   13.3475 C.ar    1  UNL1        0.0009
     31 C          69.1723   92.2345   14.2292 C.3     1  UNL1        0.4186
     32 F          70.6484   92.2671   13.9649 F       1  UNL1       -0.1659
     33 F          68.9529   91.5397   12.9180 F       1  UNL1       -0.1659
     34 F          69.3917   92.9292   15.5403 F       1  UNL1       -0.1659
@<TRIPOS>BOND
     1     8     9    1
     2     9    10    1
     3     9    11    1
     4     9     2    1
     5     2     3   ar
     6     3     4   ar
     7     4     5   ar
     8     5     1    1
     9     1    12    1
    10    12    13   ar
    11    13    14   ar
    12    14    15   ar
    13    15    16   ar
    14    16    17   ar
    15     1    18    1
    16    18    19    1
    17    19    20    1
    18    20    21    1
    19    21    24    1
    20    24    25    1
    21    25    26   ar
    22    26    27   ar
    23    27    28   ar
    24    28    29   ar
    25    29    31    1
    26    31    32    1
    27    31    33    1
    28    31    34    1
    29    29    30   ar
    30    21    22    1
    31    22    23    1
    32     5     6   ar
    33     6     7   ar
    34     7     2   ar
    35    17    12   ar
    36    23    18    1
    37    30    25   ar
@<TRIPOS>MOLECULE
*****
 34 37 0 0 0
SMALL
GASTEIGER

@<TRIPOS>ATOM
      1 N          62.3809   85.6120   11.0635 N.pl3   1  UNL1       -0.2872
      2 C          62.7755   81.6604   13.1799 C.ar    1  UNL1        0.0715
      3 C          62.4761   82.9041   13.9632 C.ar    1  UNL1        0.0051
      4 C          62.3445   84.2213   13.2577 C.ar    1  UNL1        0.0148
      5 C          62.5125   84.2948   11.7690 C.ar    1  UNL1        0.0515
      6 C          62.8119   83.0511   10.9857 C.ar    1  UNL1        0.0148
      7 C          62.9434   81.7339   11.6912 C.ar    1  UNL1        0.0051
      8 F          63.0386   79.0260   14.5909 F       1  UNL1       -0.1659
      9 C          62.9070   80.3432   13.8854 C.3     1  UNL1        0.4186
     10 F          61.4570   80.0598   13.6266 F       1  UNL1       -0.1659
     11 F          64.3571   80.6266   14.1442 F       1  UNL1       -0.1659
     12 C          61.9243   85.6556    9.6354 C.ar    1  UNL1        0.0710
     13 C          62.8317   85.1732    8.5427 C.ar    1  UNL1        0.0180
     14 C          62.3749   85.2168    7.1146 C.ar    1  UNL1        0.0220
     15 C          61.0108   85.7428    6.7792 C.ar    1  UNL1        0.0990
     16 N          60.1034   86.2252    7.8718 N.ar    1  UNL1       -0.2410
     17 C          60.5601   86.1816    9.2999 C.ar    1  UNL1        0.1136
     18 C          62.7061   86.8855   11.7861 C.3     1  UNL1        0.0800
     19 C          62.1880   88.1948   11.2687 C.3     1  UNL1        0.0375
     20 C          62.5131   89.4683   11.9913 C.3     1  UNL1        0.0741
     21 N          63.3563   89.4328   13.2314 N.3     1  UNL1       -0.2689
     22 C          63.8744   88.1237   13.7488 C.3     1  UNL1        0.0741
     23 C          63.5493   86.8500   13.0262 C.3     1  UNL1        0.0375
     24 C          63.6815   90.7065   13.9540 C.3     1  UNL1        0.0991
     25 C          64.9784   91.4108   13.6859 C.ar    1  UNL1       -0.0062
     26 C          65.2465   91.9993   12.3325 C.ar    1  UNL1       -0.0029
     27 C          66.5434   92.7036   12.0644 C.ar    1  UNL1       -0.0003
     28 C          67.5723   92.8195   13.1498 C.ar    1  UNL1        0.0038
     29 C          67.3042   92.2310   14.5032 C.ar    1  UNL1        0.0712
     30 C          66.0072   91.5267   14.7713 C.ar    1  UNL1        0.0009
     31 C          68.3330   92.3469   15.5886 C.3     1  UNL1        0.4186
     32 F          69.3618   92.4628   16.6740 F       1  UNL1       -0.1659
     33 F          67.2443   92.3477   16.6204 F       1  UNL1       -0.1659
     34 F          69.4216   92.3461   14.5568 F       1  UNL1       -0.1659
@<TRIPOS>BOND
     1     8     9    1
     2     9    10    1
     3     9    11    1
     4     9     2    1
     5     2     3   ar
     6     3     4   ar
     7     4     5   ar
     8     5     1    1
     9     1    12    1
    10    12    13   ar
    11    13    14   ar
    12    14    15   ar
    13    15    16   ar
    14    16    17   ar
    15     1    18    1
    16    18    19    1
    17    19    20    1
    18    20    21    1
    19    21    24    1
    20    24    25    1
    21    25    26   ar
    22    26    27   ar
    23    27    28   ar
    24    28    29   ar
    25    29    31    1
    26    31    32    1
    27    31    33    1
    28    31    34    1
    29    29    30   ar
    30    21    22    1
    31    22    23    1
    32     5     6   ar
    33     6     7   ar
    34     7     2   ar
    35    17    12   ar
    36    23    18    1
    37    30    25   ar
@<TRIPOS>MOLECULE
*****
 34 37 0 0 0
SMALL
GASTEIGER

@<TRIPOS>ATOM
      1 N          62.4812   85.7830   11.7160 N.pl3   1  UNL1       -0.2872
      2 C          62.7155   81.5569   13.2439 C.ar    1  UNL1        0.0715
      3 C          62.9836   81.8472   11.7969 C.ar    1  UNL1        0.0051
      4 C          62.9055   83.2559   11.2876 C.ar    1  UNL1        0.0148
      5 C          62.5593   84.3743   12.2253 C.ar    1  UNL1        0.0515
      6 C          62.2912   84.0840   13.6723 C.ar    1  UNL1        0.0148
      7 C          62.3693   82.6753   14.1816 C.ar    1  UNL1        0.0051
      8 F          62.8716   78.7394   14.2625 F       1  UNL1       -0.1659
      9 C          62.7936   80.1481   13.7532 C.3     1  UNL1        0.4186
     10 F          64.2500   80.3388   14.0572 F       1  UNL1       -0.1659
     11 F          61.3371   79.9575   13.4492 F       1  UNL1       -0.1659
     12 C          61.8378   86.0670   10.3911 C.ar    1  UNL1        0.0710
     13 C          62.4799   85.5804    9.1258 C.ar    1  UNL1        0.0180
     14 C          61.8365   85.8643    7.8009 C.ar    1  UNL1        0.0220
     15 C          60.5509   86.6348    7.7413 C.ar    1  UNL1        0.0990
     16 N          59.9087   87.1214    9.0065 N.ar    1  UNL1       -0.2410
     17 C          60.5521   86.8375   10.3314 C.ar    1  UNL1        0.1136
     18 C          63.0465   86.9078   12.5315 C.3     1  UNL1        0.0800
     19 C          62.8456   88.3278   12.0918 C.3     1  UNL1        0.0375
     20 C          63.4109   89.4526   12.9074 C.3     1  UNL1        0.0741
     21 N          64.1771   89.1575   14.1627 N.3     1  UNL1       -0.2689
     22 C          64.3781   87.7376   14.6024 C.3     1  UNL1        0.0741
     23 C          63.8128   86.6127   13.7868 C.3     1  UNL1        0.0375
     24 C          64.7425   90.2824   14.9783 C.3     1  UNL1        0.0991
     25 C          65.7177   91.2402   14.3607 C.ar    1  UNL1       -0.0062
     26 C          67.1129   91.3432   14.9019 C.ar    1  UNL1       -0.0029
     27 C          68.0882   92.3009   14.2843 C.ar    1  UNL1       -0.0003
     28 C          67.6683   93.1558   13.1254 C.ar    1  UNL1        0.0038
     29 C          66.2731   93.0528   12.5841 C.ar    1  UNL1        0.0712
     30 C          65.2979   92.0950   13.2018 C.ar    1  UNL1        0.0009
     31 C          65.8533   93.9076   11.4253 C.3     1  UNL1        0.4186
     32 F          65.4334   94.7624   10.2664 F       1  UNL1       -0.1659
     33 F          65.3835   92.6852   10.6938 F       1  UNL1       -0.1659
     34 F          66.3230   95.1300   12.1567 F       1  UNL1       -0.1659
@<TRIPOS>BOND
     1     8     9    1
     2     9    10    1
     3     9    11    1
     4     9     2    1
     5     2     3   ar
     6     3     4   ar
     7     4     5   ar
     8     5     1    1
     9     1    12    1
    10    12    13   ar
    11    13    14   ar
    12    14    15   ar
    13    15    16   ar
    14    16    17   ar
    15     1    18    1
    16    18    19    1
    17    19    20    1
    18    20    21    1
    19    21    24    1
    20    24    25    1
    21    25    26   ar
    22    26    27   ar
    23    27    28   ar
    24    28    29   ar
    25    29    31    1
    26    31    32    1
    27    31    33    1
    28    31    34    1
    29    29    30   ar
    30    21    22    1
    31    22    23    1
    32     5     6   ar
    33     6     7   ar
    34     7     2   ar
    35    17    12   ar
    36    23    18    1
    37    30    25   ar
@<TRIPOS>MOLECULE
*****
 34 37 0 0 0
SMALL
GASTEIGER

@<TRIPOS>ATOM
      1 N          62.5381   89.5521   12.2356 N.pl3   1  UNL1       -0.2872
      2 C          65.4785   92.8525   11.3926 C.ar    1  UNL1        0.0715
      3 C          65.3182   92.3295   12.7892 C.ar    1  UNL1        0.0051
      4 C          64.3380   91.2294   13.0702 C.ar    1  UNL1        0.0148
      5 C          63.5182   90.6522   11.9546 C.ar    1  UNL1        0.0515
      6 C          63.6786   91.1752   10.5579 C.ar    1  UNL1        0.0148
      7 C          64.6587   92.2754   10.2769 C.ar    1  UNL1        0.0051
      8 F          67.4389   95.0528   10.8306 F       1  UNL1       -0.1659
      9 C          66.4587   93.9527   11.1116 C.3     1  UNL1        0.4186
     10 F          66.1963   94.5333   12.4695 F       1  UNL1       -0.1659
     11 F          66.7211   93.3720    9.7536 F       1  UNL1       -0.1659
     12 C          61.0654   89.8114   12.1174 C.ar    1  UNL1        0.0710
     13 C          60.0960   89.0218   12.9462 C.ar    1  UNL1        0.0180
     14 C          58.6232   89.2812   12.8280 C.ar    1  UNL1        0.0220
     15 C          58.1200   90.3299   11.8810 C.ar    1  UNL1        0.0990
     16 N          59.0894   91.1195   11.0523 N.ar    1  UNL1       -0.2410
     17 C          60.5621   90.8602   11.1704 C.ar    1  UNL1        0.1136
     18 C          63.0306   88.1927   12.6347 C.3     1  UNL1        0.0800
     19 C          62.6576   86.9904   11.8189 C.3     1  UNL1        0.0375
     20 C          63.1500   85.6310   12.2181 C.3     1  UNL1        0.0741
     21 N          64.0156   85.4737   13.4331 N.3     1  UNL1       -0.2689
     22 C          64.3886   86.6759   14.2489 C.3     1  UNL1        0.0741
     23 C          63.8961   88.0354   13.8497 C.3     1  UNL1        0.0375
     24 C          64.5080   84.1142   13.8322 C.3     1  UNL1        0.0991
     25 C          63.6581   82.9045   13.5792 C.ar    1  UNL1       -0.0062
     26 C          62.6998   82.4280   14.6303 C.ar    1  UNL1       -0.0029
     27 C          61.8498   81.2183   14.3772 C.ar    1  UNL1       -0.0003
     28 C          61.9581   80.4850   13.0731 C.ar    1  UNL1        0.0038
     29 C          62.9163   80.9615   12.0221 C.ar    1  UNL1        0.0712
     30 C          63.7663   82.1713   12.2751 C.ar    1  UNL1        0.0009
     31 C          63.0246   80.2283   10.7180 C.3     1  UNL1        0.4186
     32 F          63.1328   79.4951    9.4139 F       1  UNL1       -0.1659
     33 F          62.6042   78.9586   11.3970 F       1  UNL1       -0.1659
     34 F          63.4450   81.4980   10.0390 F       1  UNL1       -0.1659
@<TRIPOS>BOND
     1     8     9    1
     2     9    10    1
     3     9    11    1
     4     9     2    1
     5     2     3   ar
     6     3     4   ar
     7     4     5   ar
     8     5     1    1
     9     1    12    1
    10    12    13   ar
    11    13    14   ar
    12    14    15   ar
    13    15    16   ar
    14    16    17   ar
    15     1    18    1
    16    18    19    1
    17    19    20    1
    18    20    21    1
    19    21    24    1
    20    24    25    1
    21    25    26   ar
    22    26    27   ar
    23    27    28   ar
    24    28    29   ar
    25    29    31    1
    26    31    32    1
    27    31    33    1
    28    31    34    1
    29    29    30   ar
    30    21    22    1
    31    22    23    1
    32     5     6   ar
    33     6     7   ar
    34     7     2   ar
    35    17    12   ar
    36    23    18    1
    37    30    25   ar
