@<TRIPOS>MOLECULE
*****
 42 47 0 0 0
SMALL
GASTEIGER

@<TRIPOS>ATOM
      1 C          60.9125   92.2045    3.0123 C.ar    1  UNL1        0.0481
      2 C          59.4923   92.5311    3.3675 C.ar    1  UNL1        0.0176
      3 C          58.8741   91.9448    4.6022 C.ar    1  UNL1        0.0382
      4 C          59.6763   91.0320    5.4815 C.ar    1  UNL1        0.1388
      5 C          61.0966   90.7054    5.1263 C.ar    1  UNL1        0.0382
      6 C          61.7147   91.2917    3.8917 C.ar    1  UNL1        0.0176
      7 N          62.7670   93.9633   -0.6914 N.3     1  UNL1       -0.1492
      8 C          63.5247   93.9715    0.6031 C.3     1  UNL1        0.1173
      9 C          62.9065   93.3853    1.8376 C.3     1  UNL1        0.1099
     10 N          61.5307   92.7908    1.7777 N.pl3   1  UNL1       -0.3045
     11 C          60.7730   92.7825    0.4832 C.3     1  UNL1        0.1099
     12 C          61.3911   93.3688   -0.7514 C.3     1  UNL1        0.1173
     13 S          63.3852   94.5495   -1.9260 S.O2    1  UNL1        0.0960
     14 O          62.0983   94.3429   -2.6684 O.2     1  UNL1       -0.1498
     15 O          64.6721   94.7562   -1.1837 O.2     1  UNL1       -0.1498
     16 C          64.6332   92.8691   -4.4296 C.3     1  UNL1        0.1333
     17 N          64.5769   94.3633   -4.3114 N.ar    1  UNL1       -0.2924
     18 C          65.0844   95.3475   -5.3232 C.ar    1  UNL1        0.0991
     19 C          64.8244   96.7283   -4.7978 C.ar    1  UNL1        0.1205
     20 N          64.1562   96.5974   -3.4613 N.ar    1  UNL1       -0.2080
     21 C          64.0032   95.1358   -3.1606 C.ar    1  UNL1        0.2708
     22 O          59.0582   90.4457    6.7161 O.3     1  UNL1       -0.4727
     23 C          58.6777   88.9952    6.7479 C.3     1  UNL1        0.2374
     24 C          59.4856   88.0254    7.5585 C.3     1  UNL1        0.1909
     25 C          59.2254   86.5539    7.6890 C.3     1  UNL1        0.1783
     26 O          60.2745   85.9759    8.5919 O.3     1  UNL1       -0.3267
     27 C          61.1832   87.0903    9.0194 C.3     1  UNL1        0.2296
     28 O          60.6956   88.3569    8.3807 O.3     1  UNL1       -0.3255
     29 C          61.8916   86.0094    9.7808 C.ar    1  UNL1        0.0409
     30 C          61.6680   85.8616   11.2566 C.ar    1  UNL1        0.0022
     31 C          62.3765   84.7806   12.0180 C.ar    1  UNL1        0.0113
     32 C          63.3086   83.8476   11.3036 C.ar    1  UNL1        0.0585
     33 CL         64.0170   82.7666   12.0649 Cl      1  UNL1       -0.0822
     34 C          63.5323   83.9954    9.8276 C.ar    1  UNL1        0.0226
     35 C          62.8238   85.0763    9.0663 C.ar    1  UNL1        0.0591
     36 CL         63.0475   85.2241    7.5905 Cl      1  UNL1       -0.0824
     37 C          62.2399   87.9786    9.6061 C.3     1  UNL1        0.1682
     38 N          61.9587   88.7509   10.8609 N.ar    1  UNL1       -0.3025
     39 C          62.9836   89.2684   11.8261 C.ar    1  UNL1        0.0982
     40 C          62.2615   89.9785   12.9325 C.ar    1  UNL1        0.1193
     41 N          60.7902   89.8999   12.6512 N.ar    1  UNL1       -0.2223
     42 C          60.6030   89.1411   11.3709 C.ar    1  UNL1        0.1788
@<TRIPOS>BOND
     1    16    17    1
     2    17    18   ar
     3    18    19   ar
     4    19    20   ar
     5    20    21   ar
     6    21    13    1
     7    13    14    2
     8    13    15    2
     9    13     7    1
    10     7     8    1
    11     8     9    1
    12     9    10    1
    13    10     1    1
    14     1     2   ar
    15     2     3   ar
    16     3     4   ar
    17     4    22    1
    18    22    23    1
    19    24    23    1
    20    24    25    1
    21    25    26    1
    22    26    27    1
    23    27    37    1
    24    37    38    1
    25    38    39   ar
    26    39    40   ar
    27    40    41   ar
    28    41    42   ar
    29    27    29    1
    30    29    30   ar
    31    30    31   ar
    32    31    32   ar
    33    32    33    1
    34    32    34   ar
    35    34    35   ar
    36    35    36    1
    37    27    28    1
    38     4     5   ar
    39     5     6   ar
    40    10    11    1
    41    11    12    1
    42    21    17   ar
    43    12     7    1
    44     6     1   ar
    45    28    24    1
    46    42    38   ar
    47    35    29   ar
@<TRIPOS>MOLECULE
*****
 42 47 0 0 0
SMALL
GASTEIGER

@<TRIPOS>ATOM
      1 C          60.7800   92.1482    3.2824 C.ar    1  UNL1        0.0481
      2 C          61.6153   91.1898    4.0783 C.ar    1  UNL1        0.0176
      3 C          61.0375   90.5172    5.2882 C.ar    1  UNL1        0.0382
      4 C          59.6244   90.8031    5.7021 C.ar    1  UNL1        0.1388
      5 C          58.7891   91.7616    4.9061 C.ar    1  UNL1        0.0382
      6 C          59.3669   92.4342    3.6963 C.ar    1  UNL1        0.0176
      7 N          62.5134   94.1660   -0.3472 N.3     1  UNL1       -0.1492
      8 C          61.0723   94.3767    0.0115 C.3     1  UNL1        0.1173
      9 C          60.4945   93.7041    1.2213 C.3     1  UNL1        0.1099
     10 N          61.3579   92.8208    2.0725 N.pl3   1  UNL1       -0.3045
     11 C          62.7990   92.6101    1.7137 C.3     1  UNL1        0.1099
     12 C          63.3767   93.2827    0.5039 C.3     1  UNL1        0.1173
     13 S          63.0912   94.8386   -1.5572 S.O2    1  UNL1        0.0960
     14 O          62.2901   96.0702   -1.2550 O.2     1  UNL1       -0.1498
     15 O          63.8923   93.6070   -1.8593 O.2     1  UNL1       -0.1498
     16 C          65.7077   96.7883   -1.6018 C.3     1  UNL1        0.1333
     17 N          64.8717   96.4074   -2.7875 N.ar    1  UNL1       -0.2924
     18 C          65.0915   96.8558   -4.2019 C.ar    1  UNL1        0.0991
     19 C          64.0247   96.2367   -5.0556 C.ar    1  UNL1        0.1205
     20 N          63.1456   95.4057   -4.1688 N.ar    1  UNL1       -0.2080
     21 C          63.6690   95.5112   -2.7670 C.ar    1  UNL1        0.2708
     22 O          59.0465   90.1306    6.9119 O.3     1  UNL1       -0.4727
     23 C          58.7281   88.6653    6.8751 C.3     1  UNL1        0.2374
     24 C          59.6298   87.6842    7.5641 C.3     1  UNL1        0.1909
     25 C          59.6069   86.1943    7.3921 C.3     1  UNL1        0.1783
     26 O          60.6756   85.6101    8.2676 O.3     1  UNL1       -0.3267
     27 C          61.3590   86.7391    8.9807 C.3     1  UNL1        0.2296
     28 O          60.7127   88.0209    8.5459 O.3     1  UNL1       -0.3255
     29 C          62.1843   85.6454    9.5913 C.ar    1  UNL1        0.0409
     30 C          63.1250   84.8493    8.7362 C.ar    1  UNL1        0.0022
     31 C          63.9504   83.7555    9.3467 C.ar    1  UNL1        0.0113
     32 C          63.8349   83.4580   10.8123 C.ar    1  UNL1        0.0585
     33 CL         64.6602   82.3643   11.4229 Cl      1  UNL1       -0.0822
     34 C          62.8942   84.2542   11.6675 C.ar    1  UNL1        0.0226
     35 C          62.0689   85.3478   11.0570 C.ar    1  UNL1        0.0591
     36 CL         61.1282   86.1440   11.9121 Cl      1  UNL1       -0.0824
     37 C          62.2150   87.6393    9.8215 C.3     1  UNL1        0.1682
     38 N          61.6686   88.9452   10.3175 N.ar    1  UNL1       -0.3025
     39 C          62.2460   90.3027   10.0458 C.ar    1  UNL1        0.0982
     40 C          61.3832   91.3194   10.7326 C.ar    1  UNL1        0.1193
     41 N          60.2724   90.5903   11.4288 N.ar    1  UNL1       -0.2223
     42 C          60.4488   89.1229   11.1722 C.ar    1  UNL1        0.1788
@<TRIPOS>BOND
     1    16    17    1
     2    17    18   ar
     3    18    19   ar
     4    19    20   ar
     5    20    21   ar
     6    21    13    1
     7    13    14    2
     8    13    15    2
     9    13     7    1
    10     7     8    1
    11     8     9    1
    12     9    10    1
    13    10     1    1
    14     1     2   ar
    15     2     3   ar
    16     3     4   ar
    17     4    22    1
    18    22    23    1
    19    24    23    1
    20    24    25    1
    21    25    26    1
    22    26    27    1
    23    27    37    1
    24    37    38    1
    25    38    39   ar
    26    39    40   ar
    27    40    41   ar
    28    41    42   ar
    29    27    29    1
    30    29    30   ar
    31    30    31   ar
    32    31    32   ar
    33    32    33    1
    34    32    34   ar
    35    34    35   ar
    36    35    36    1
    37    27    28    1
    38     4     5   ar
    39     5     6   ar
    40    10    11    1
    41    11    12    1
    42    21    17   ar
    43    12     7    1
    44     6     1   ar
    45    28    24    1
    46    42    38   ar
    47    35    29   ar
@<TRIPOS>MOLECULE
*****
 42 47 0 0 0
SMALL
GASTEIGER

@<TRIPOS>ATOM
      1 C          64.3710   89.7689   14.6812 C.ar    1  UNL1        0.0481
      2 C          64.7463   88.3281   14.4996 C.ar    1  UNL1        0.0176
      3 C          64.2825   87.3016   15.4902 C.ar    1  UNL1        0.0382
      4 C          63.4433   87.7160   16.6624 C.ar    1  UNL1        0.1388
      5 C          63.0680   89.1570   16.8440 C.ar    1  UNL1        0.0382
      6 C          63.5319   90.1834   15.8534 C.ar    1  UNL1        0.0176
      7 N          65.7626   92.8483   11.7096 N.3     1  UNL1       -0.1492
      8 C          66.5295   92.6323   12.9805 C.3     1  UNL1        0.1173
      9 C          66.0656   91.6058   13.9710 C.3     1  UNL1        0.1099
     10 N          64.8349   90.7954   13.6906 N.pl3   1  UNL1       -0.3045
     11 C          64.0681   91.0115   12.4197 C.3     1  UNL1        0.1099
     12 C          64.5319   92.0379   11.4292 C.3     1  UNL1        0.1173
     13 S          66.2265   93.8748   10.7190 S.O2    1  UNL1        0.0960
     14 O          66.2621   92.8252    9.6481 O.2     1  UNL1       -0.1498
     15 O          66.1909   94.9245   11.7899 O.2     1  UNL1       -0.1498
     16 C          64.5545   96.5082    9.7602 C.3     1  UNL1        0.1333
     17 N          65.9218   96.1117    9.2877 N.ar    1  UNL1       -0.2924
     18 C          66.7606   96.8560    8.2915 C.ar    1  UNL1        0.0991
     19 C          68.0476   96.1055    8.1165 C.ar    1  UNL1        0.1205
     20 N          68.0041   94.8975    9.0046 N.ar    1  UNL1       -0.2080
     21 C          66.6903   94.9012    9.7284 C.ar    1  UNL1        0.2708
     22 O          62.9794   86.6896   17.6530 O.3     1  UNL1       -0.4727
     23 C          61.9791   85.6499   17.2428 C.3     1  UNL1        0.2374
     24 C          62.2718   84.7434   16.0841 C.3     1  UNL1        0.1909
     25 C          63.1861   83.5544   16.1038 C.3     1  UNL1        0.1783
     26 O          63.1809   82.9428   14.7342 O.3     1  UNL1       -0.3267
     27 C          62.2633   83.7538   13.8679 C.3     1  UNL1        0.2296
     28 O          61.7015   84.8666   14.7022 O.3     1  UNL1       -0.3255
     29 C          62.6503   82.7675   12.8062 C.ar    1  UNL1        0.0409
     30 C          63.5205   83.1989   11.6631 C.ar    1  UNL1        0.0022
     31 C          63.9075   82.2125   10.6012 C.ar    1  UNL1        0.0113
     32 C          63.4244   80.7949   10.6826 C.ar    1  UNL1        0.0585
     33 CL         63.8114   79.8085    9.6208 Cl      1  UNL1       -0.0822
     34 C          62.5542   80.3634   11.8258 C.ar    1  UNL1        0.0226
     35 C          62.1672   81.3498   12.8875 C.ar    1  UNL1        0.0591
     36 CL         61.2970   80.9184   14.0306 Cl      1  UNL1       -0.0824
     37 C          61.4267   84.3586   12.7797 C.3     1  UNL1        0.1682
     38 N          61.8182   85.6749   12.1764 N.ar    1  UNL1       -0.3025
     39 C          61.0829   86.3997   11.0884 C.ar    1  UNL1        0.0982
     40 C          61.8240   87.6703   10.7948 C.ar    1  UNL1        0.1193
     41 N          63.0175   87.7308   11.7014 N.ar    1  UNL1       -0.2223
     42 C          63.0139   86.4976   12.5553 C.ar    1  UNL1        0.1788
@<TRIPOS>BOND
     1    16    17    1
     2    17    18   ar
     3    18    19   ar
     4    19    20   ar
     5    20    21   ar
     6    21    13    1
     7    13    14    2
     8    13    15    2
     9    13     7    1
    10     7     8    1
    11     8     9    1
    12     9    10    1
    13    10     1    1
    14     1     2   ar
    15     2     3   ar
    16     3     4   ar
    17     4    22    1
    18    22    23    1
    19    24    23    1
    20    24    25    1
    21    25    26    1
    22    26    27    1
    23    27    37    1
    24    37    38    1
    25    38    39   ar
    26    39    40   ar
    27    40    41   ar
    28    41    42   ar
    29    27    29    1
    30    29    30   ar
    31    30    31   ar
    32    31    32   ar
    33    32    33    1
    34    32    34   ar
    35    34    35   ar
    36    35    36    1
    37    27    28    1
    38     4     5   ar
    39     5     6   ar
    40    10    11    1
    41    11    12    1
    42    21    17   ar
    43    12     7    1
    44     6     1   ar
    45    28    24    1
    46    42    38   ar
    47    35    29   ar
@<TRIPOS>MOLECULE
*****
 42 47 0 0 0
SMALL
GASTEIGER

@<TRIPOS>ATOM
      1 C          60.0573   91.8283    3.7217 C.ar    1  UNL1        0.0481
      2 C          58.6347   91.8316    4.1971 C.ar    1  UNL1        0.0176
      3 C          58.2580   91.0835    5.4415 C.ar    1  UNL1        0.0382
      4 C          59.3040   90.3320    6.2104 C.ar    1  UNL1        0.1388
      5 C          60.7267   90.3288    5.7349 C.ar    1  UNL1        0.0382
      6 C          61.1033   91.0769    4.4905 C.ar    1  UNL1        0.0176
      7 N          61.1870   94.0727   -0.0115 N.3     1  UNL1       -0.1492
      8 C          59.7488   93.7447    0.2601 C.3     1  UNL1        0.1173
      9 C          59.3722   92.9966    1.5044 C.3     1  UNL1        0.1099
     10 N          60.4339   92.5765    2.4772 N.pl3   1  UNL1       -0.3045
     11 C          61.8722   92.9045    2.2057 C.3     1  UNL1        0.1099
     12 C          62.2487   93.6527    0.9614 C.3     1  UNL1        0.1173
     13 S          61.5637   94.8209   -1.2559 S.O2    1  UNL1        0.0960
     14 O          60.7625   93.8559   -2.0785 O.2     1  UNL1       -0.1498
     15 O          62.3649   95.7859   -0.4332 O.2     1  UNL1       -0.1498
     16 C          64.5966   95.3076   -2.3575 C.3     1  UNL1        0.1333
     17 N          63.3344   95.7927   -3.0066 N.ar    1  UNL1       -0.2924
     18 C          63.2446   96.5867   -4.2760 C.ar    1  UNL1        0.0991
     19 C          61.7950   96.8537   -4.5543 C.ar    1  UNL1        0.1205
     20 N          60.9889   96.2248   -3.4567 N.ar    1  UNL1       -0.2080
     21 C          61.9403   95.5690   -2.5002 C.ar    1  UNL1        0.2708
     22 O          58.9275   89.5839    7.4548 O.3     1  UNL1       -0.4727
     23 C          59.8125   89.6464    8.6642 C.3     1  UNL1        0.2374
     24 C          60.4205   88.3903    9.2144 C.3     1  UNL1        0.1909
     25 C          59.8825   87.0009    9.0406 C.3     1  UNL1        0.1783
     26 O          60.8026   86.0550    9.7538 O.3     1  UNL1       -0.3267
     27 C          61.9092   86.8598   10.3684 C.3     1  UNL1        0.2296
     28 O          61.6730   88.3031   10.0351 O.3     1  UNL1       -0.3255
     29 C          62.3981   85.5265   10.8514 C.ar    1  UNL1        0.0409
     30 C          62.1978   85.1281   12.2835 C.ar    1  UNL1        0.0022
     31 C          62.6867   83.7947   12.7665 C.ar    1  UNL1        0.0113
     32 C          63.3758   82.8598   11.8174 C.ar    1  UNL1        0.0585
     33 CL         63.8646   81.5265   12.3003 Cl      1  UNL1       -0.0822
     34 C          63.5761   83.2582   10.3851 C.ar    1  UNL1        0.0226
     35 C          63.0872   84.5916    9.9021 C.ar    1  UNL1        0.0591
     36 CL         63.2875   84.9900    8.4699 Cl      1  UNL1       -0.0824
     37 C          63.1180   87.3858   11.0840 C.3     1  UNL1        0.1682
     38 N          63.0754   88.7365   11.7352 N.ar    1  UNL1       -0.3025
     39 C          63.0574   90.0575   11.0250 C.ar    1  UNL1        0.0982
     40 C          63.0143   91.1406   12.0617 C.ar    1  UNL1        0.1193
     41 N          63.0057   90.4890   13.4127 N.ar    1  UNL1       -0.2223
     42 C          63.0435   89.0031   13.2109 C.ar    1  UNL1        0.1788
@<TRIPOS>BOND
     1    16    17    1
     2    17    18   ar
     3    18    19   ar
     4    19    20   ar
     5    20    21   ar
     6    21    13    1
     7    13    14    2
     8    13    15    2
     9    13     7    1
    10     7     8    1
    11     8     9    1
    12     9    10    1
    13    10     1    1
    14     1     2   ar
    15     2     3   ar
    16     3     4   ar
    17     4    22    1
    18    22    23    1
    19    24    23    1
    20    24    25    1
    21    25    26    1
    22    26    27    1
    23    27    37    1
    24    37    38    1
    25    38    39   ar
    26    39    40   ar
    27    40    41   ar
    28    41    42   ar
    29    27    29    1
    30    29    30   ar
    31    30    31   ar
    32    31    32   ar
    33    32    33    1
    34    32    34   ar
    35    34    35   ar
    36    35    36    1
    37    27    28    1
    38     4     5   ar
    39     5     6   ar
    40    10    11    1
    41    11    12    1
    42    21    17   ar
    43    12     7    1
    44     6     1   ar
    45    28    24    1
    46    42    38   ar
    47    35    29   ar
@<TRIPOS>MOLECULE
*****
 42 47 0 0 0
SMALL
GASTEIGER

@<TRIPOS>ATOM
      1 C          60.1080   89.0441    7.5210 C.ar    1  UNL1        0.0481
      2 C          61.0041   89.9936    6.7826 C.ar    1  UNL1        0.0176
      3 C          60.4441   90.8600    5.6935 C.ar    1  UNL1        0.0382
      4 C          58.9880   90.7768    5.3430 C.ar    1  UNL1        0.1388
      5 C          58.0919   89.8272    6.0815 C.ar    1  UNL1        0.0382
      6 C          58.6519   88.9609    7.1705 C.ar    1  UNL1        0.0176
      7 N          61.7878   86.4451   10.7880 N.3     1  UNL1       -0.1492
      8 C          61.8129   87.9382   10.9298 C.3     1  UNL1        0.1173
      9 C          61.2530   88.8045    9.8408 C.3     1  UNL1        0.1099
     10 N          60.6679   88.1777    8.6100 N.pl3   1  UNL1       -0.3045
     11 C          60.6428   86.6847    8.4682 C.3     1  UNL1        0.1099
     12 C          61.2027   85.8184    9.5572 C.3     1  UNL1        0.1173
     13 S          62.3478   85.5788   11.8771 S.O2    1  UNL1        0.0960
     14 O          61.7574   84.3680   11.2173 O.2     1  UNL1       -0.1498
     15 O          62.9381   86.7896   12.5369 O.2     1  UNL1       -0.1498
     16 C          64.5528   83.2036   11.4957 C.3     1  UNL1        0.1333
     17 N          63.9212   83.6207   12.7907 N.ar    1  UNL1       -0.2924
     18 C          64.1923   83.0192   14.1378 C.ar    1  UNL1        0.0991
     19 C          63.3463   83.7392   15.1457 C.ar    1  UNL1        0.1205
     20 N          62.5523   84.7857   14.4215 N.ar    1  UNL1       -0.2080
     21 C          62.9077   84.7124   12.9660 C.ar    1  UNL1        0.2708
     22 O          58.4280   91.6431    4.2540 O.3     1  UNL1       -0.4727
     23 C          59.0229   92.9946    3.9903 C.3     1  UNL1        0.2374
     24 C          59.9023   93.2064    2.7937 C.3     1  UNL1        0.1909
     25 C          61.2977   92.6836    2.6214 C.3     1  UNL1        0.1783
     26 O          61.7986   93.1322    1.2806 O.3     1  UNL1       -0.3267
     27 C          60.7127   93.9324    0.6242 C.3     1  UNL1        0.2296
     28 O          59.5408   93.9782    1.5593 O.3     1  UNL1       -0.3255
     29 C          61.7009   94.0594   -0.4972 C.ar    1  UNL1        0.0409
     30 C          61.6253   93.1301   -1.6722 C.ar    1  UNL1        0.0022
     31 C          62.6134   93.2571   -2.7937 C.ar    1  UNL1        0.0113
     32 C          63.6771   94.3133   -2.7400 C.ar    1  UNL1        0.0585
     33 CL         64.6652   94.4403   -3.8613 Cl      1  UNL1       -0.0822
     34 C          63.7527   95.2426   -1.5649 C.ar    1  UNL1        0.0226
     35 C          62.7646   95.1156   -0.4435 C.ar    1  UNL1        0.0591
     36 CL         62.8402   96.0449    0.7315 Cl      1  UNL1       -0.0824
     37 C          59.8335   94.7590   -0.2666 C.3     1  UNL1        0.1682
     38 N          58.4818   94.2484   -0.6692 N.ar    1  UNL1       -0.3025
     39 C          57.3160   95.0866   -1.1031 C.ar    1  UNL1        0.0982
     40 C          56.1723   94.1662   -1.4107 C.ar    1  UNL1        0.1193
     41 N          56.6312   92.7591   -1.1669 N.ar    1  UNL1       -0.2223
     42 C          58.0586   92.8099   -0.7086 C.ar    1  UNL1        0.1788
@<TRIPOS>BOND
     1    16    17    1
     2    17    18   ar
     3    18    19   ar
     4    19    20   ar
     5    20    21   ar
     6    21    13    1
     7    13    14    2
     8    13    15    2
     9    13     7    1
    10     7     8    1
    11     8     9    1
    12     9    10    1
    13    10     1    1
    14     1     2   ar
    15     2     3   ar
    16     3     4   ar
    17     4    22    1
    18    22    23    1
    19    24    23    1
    20    24    25    1
    21    25    26    1
    22    26    27    1
    23    27    37    1
    24    37    38    1
    25    38    39   ar
    26    39    40   ar
    27    40    41   ar
    28    41    42   ar
    29    27    29    1
    30    29    30   ar
    31    30    31   ar
    32    31    32   ar
    33    32    33    1
    34    32    34   ar
    35    34    35   ar
    36    35    36    1
    37    27    28    1
    38     4     5   ar
    39     5     6   ar
    40    10    11    1
    41    11    12    1
    42    21    17   ar
    43    12     7    1
    44     6     1   ar
    45    28    24    1
    46    42    38   ar
    47    35    29   ar
@<TRIPOS>MOLECULE
*****
 42 47 0 0 0
SMALL
GASTEIGER

@<TRIPOS>ATOM
      1 C          63.9112   87.8314   14.8690 C.ar    1  UNL1        0.0481
      2 C          63.1261   88.1559   16.1052 C.ar    1  UNL1        0.0176
      3 C          63.2911   89.4907   16.7696 C.ar    1  UNL1        0.0382
      4 C          64.2411   90.5008   16.1978 C.ar    1  UNL1        0.1388
      5 C          65.0261   90.1763   14.9615 C.ar    1  UNL1        0.0382
      6 C          64.8612   88.8416   14.2971 C.ar    1  UNL1        0.0176
      7 N          63.4164   83.8275   12.8757 N.3     1  UNL1       -0.1492
      8 C          62.9578   85.0740   12.1787 C.3     1  UNL1        0.1173
      9 C          63.1227   86.4086   12.8431 C.3     1  UNL1        0.1099
     10 N          63.7463   86.4967   14.2046 N.pl3   1  UNL1       -0.3045
     11 C          64.2048   85.2502   14.9016 C.3     1  UNL1        0.1099
     12 C          64.0399   83.9156   14.2371 C.3     1  UNL1        0.1173
     13 S          63.2514   82.4927   12.2113 S.O2    1  UNL1        0.0960
     14 O          64.5542   82.0387   12.8000 O.2     1  UNL1       -0.1498
     15 O          61.9487   82.9467   11.6226 O.2     1  UNL1       -0.1498
     16 C          62.2477   79.7430   13.6538 C.3     1  UNL1        0.1333
     17 N          62.6252   79.8942   12.2100 N.ar    1  UNL1       -0.2924
     18 C          62.6076   78.8079   11.1757 C.ar    1  UNL1        0.0991
     19 C          63.0581   79.4005    9.8734 C.ar    1  UNL1        0.1205
     20 N          63.3541   80.8529   10.1028 N.ar    1  UNL1       -0.2080
     21 C          63.0866   81.1581   11.5469 C.ar    1  UNL1        0.2708
     22 O          64.4060   91.8355   16.8621 O.3     1  UNL1       -0.4727
     23 C          65.6173   92.6720   16.5741 C.3     1  UNL1        0.2374
     24 C          66.1444   92.7713   15.1732 C.3     1  UNL1        0.1909
     25 C          67.5835   92.6671   14.7632 C.3     1  UNL1        0.1783
     26 O          67.6535   92.8236   13.2731 O.3     1  UNL1       -0.3267
     27 C          66.2576   93.0245   12.7621 C.3     1  UNL1        0.2296
     28 O          65.3249   92.9922   13.9364 O.3     1  UNL1       -0.3255
     29 C          66.9277   93.1022   11.4223 C.ar    1  UNL1        0.0409
     30 C          67.6174   91.8958   10.8576 C.ar    1  UNL1        0.0022
     31 C          68.2876   91.9735    9.5179 C.ar    1  UNL1        0.0113
     32 C          68.2681   93.2575    8.7429 C.ar    1  UNL1        0.0585
     33 CL         68.9383   93.3353    7.4032 Cl      1  UNL1       -0.0822
     34 C          67.5784   94.4641    9.3076 C.ar    1  UNL1        0.0226
     35 C          66.9083   94.3864   10.6473 C.ar    1  UNL1        0.0591
     36 CL         66.2187   95.5928   11.2120 Cl      1  UNL1       -0.0824
     37 C          65.0018   93.2417   11.9709 C.3     1  UNL1        0.1682
     38 N          64.1596   92.0691   11.5639 N.ar    1  UNL1       -0.3025
     39 C          63.4334   91.1407   12.4915 C.ar    1  UNL1        0.0982
     40 C          62.7208   90.1169   11.6586 C.ar    1  UNL1        0.1193
     41 N          63.0065   90.4125   10.2161 N.ar    1  UNL1       -0.2223
     42 C          63.8958   91.6190   10.1575 C.ar    1  UNL1        0.1788
@<TRIPOS>BOND
     1    16    17    1
     2    17    18   ar
     3    18    19   ar
     4    19    20   ar
     5    20    21   ar
     6    21    13    1
     7    13    14    2
     8    13    15    2
     9    13     7    1
    10     7     8    1
    11     8     9    1
    12     9    10    1
    13    10     1    1
    14     1     2   ar
    15     2     3   ar
    16     3     4   ar
    17     4    22    1
    18    22    23    1
    19    24    23    1
    20    24    25    1
    21    25    26    1
    22    26    27    1
    23    27    37    1
    24    37    38    1
    25    38    39   ar
    26    39    40   ar
    27    40    41   ar
    28    41    42   ar
    29    27    29    1
    30    29    30   ar
    31    30    31   ar
    32    31    32   ar
    33    32    33    1
    34    32    34   ar
    35    34    35   ar
    36    35    36    1
    37    27    28    1
    38     4     5   ar
    39     5     6   ar
    40    10    11    1
    41    11    12    1
    42    21    17   ar
    43    12     7    1
    44     6     1   ar
    45    28    24    1
    46    42    38   ar
    47    35    29   ar
