@<TRIPOS>MOLECULE
*****
 37 42 0 0 0
SMALL
GASTEIGER

@<TRIPOS>ATOM
      1 C          59.4404   86.9943    8.6118 C.3     1  UNL1        0.0468
      2 C          60.6605   86.1323    8.4761 C.ar    1  UNL1        0.0146
      3 C          61.1508   85.7354    7.1152 C.ar    1  UNL1       -0.0011
      4 C          62.3709   84.8736    6.9795 C.ar    1  UNL1        0.0014
      5 C          63.1008   84.4086    8.2048 C.ar    1  UNL1        0.0206
      6 C          62.6105   84.8055    9.5656 C.ar    1  UNL1        0.0989
      7 C          61.3904   85.6674    9.7013 C.ar    1  UNL1        0.1511
      8 O          60.9000   86.0643   11.0622 O.3     1  UNL1       -0.4678
      9 C          61.6299   85.5994   12.2875 C.3     1  UNL1        0.2510
     10 C          62.8501   84.7375   12.1517 C.ar    1  UNL1        0.1087
     11 C          63.7692   84.1316   13.1705 C.ar    1  UNL1        0.1518
     12 N          64.8276   83.3602   12.4393 N.ar    1  UNL1       -0.2192
     13 C          64.5626   83.4894   10.9686 C.ar    1  UNL1        0.1828
     14 N          63.3403   84.3406   10.7909 N.ar    1  UNL1       -0.2851
     15 C          63.6508   84.2724   14.6592 C.2     1  UNL1        0.2682
     16 O          63.2518   83.0923   15.4948 O.2     1  UNL1       -0.2682
     17 N          63.9313   85.5933   15.3123 N.am    1  UNL1       -0.2713
     18 C          63.8129   85.7341   16.8009 C.3     1  UNL1        0.1153
     19 C          64.3303   86.7734   14.4767 C.3     1  UNL1        0.1153
     20 C          59.5839   88.4811    8.7486 C.3     1  UNL1        0.0770
     21 N          62.6526   90.1966   11.5574 N.pl3   1  UNL1       -0.3046
     22 C          63.0686   89.7006   10.2043 C.3     1  UNL1        0.1081
     23 C          62.0457   89.1288    9.2680 C.3     1  UNL1        0.0938
     24 N          60.6068   89.0529    9.6848 N.3     1  UNL1       -0.2695
     25 C          60.1908   89.5489   11.0380 C.3     1  UNL1        0.0938
     26 C          61.2137   90.1207   11.9743 C.3     1  UNL1        0.1081
     27 C          67.1677   95.3100   10.7109 C.3     1  UNL1        0.0521
     28 C          66.2947   94.1746   11.1566 C.ar    1  UNL1        0.0593
     29 C          65.2717   93.6028   10.2204 C.ar    1  UNL1        0.0148
     30 C          64.3987   92.4674   10.6660 C.ar    1  UNL1        0.0039
     31 C          64.5486   91.9038   12.0480 C.ar    1  UNL1        0.0310
     32 C          63.6755   90.7684   12.4937 C.ar    1  UNL1        0.0493
     33 C          63.8255   90.2047   13.8757 C.ar    1  UNL1        0.0146
     34 C          64.8484   90.7766   14.8120 C.ar    1  UNL1        0.0028
     35 C          65.7214   91.9120   14.3663 C.ar    1  UNL1        0.0192
     36 C          65.5716   92.4756   12.9843 C.ar    1  UNL1        0.0821
     37 N          66.4446   93.6110   12.5387 N.ar    1  UNL1       -0.2496
@<TRIPOS>BOND
     1    27    28    1
     2    28    29   ar
     3    29    30   ar
     4    30    31   ar
     5    31    32   ar
     6    32    21    1
     7    21    22    1
     8    22    23    1
     9    23    24    1
    10    24    20    1
    11    20     1    1
    12     1     2    1
    13     2     3   ar
    14     3     4   ar
    15     4     5   ar
    16     5     6   ar
    17     6     7   ar
    18     7     8    1
    19     8     9    1
    20     9    10    1
    21    10    11   ar
    22    11    15    1
    23    15    16    2
    24    15    17   am
    25    17    18    1
    26    17    19    1
    27    11    12   ar
    28    12    13   ar
    29    13    14   ar
    30    24    25    1
    31    25    26    1
    32    32    33   ar
    33    33    34   ar
    34    34    35   ar
    35    35    36   ar
    36    36    37   ar
    37    37    28   ar
    38    36    31   ar
    39    26    21    1
    40     7     2   ar
    41    14    10   ar
    42    14     6    1
@<TRIPOS>MOLECULE
*****
 37 42 0 0 0
SMALL
GASTEIGER

@<TRIPOS>ATOM
      1 C          62.3614   84.8280   16.0579 C.3     1  UNL1        0.0468
      2 C          63.0588   84.2106   14.8821 C.ar    1  UNL1        0.0146
      3 C          64.1117   83.1645   15.0990 C.ar    1  UNL1       -0.0011
      4 C          64.8090   82.5472   13.9232 C.ar    1  UNL1        0.0014
      5 C          64.4534   82.9759   12.5304 C.ar    1  UNL1        0.0206
      6 C          63.4005   84.0219   12.3135 C.ar    1  UNL1        0.0989
      7 C          62.7032   84.6393   13.4893 C.ar    1  UNL1        0.1511
      8 O          61.6502   85.6854   13.2724 O.3     1  UNL1       -0.4678
      9 C          61.2946   86.1141   11.8796 C.3     1  UNL1        0.2510
     10 C          61.9920   85.4967   10.7038 C.ar    1  UNL1        0.1087
     11 C          61.8542   85.7164    9.2264 C.ar    1  UNL1        0.1518
     12 N          62.8221   84.8061    8.5302 N.ar    1  UNL1       -0.2192
     13 C          63.5579   84.0238    9.5774 C.ar    1  UNL1        0.1828
     14 N          63.0449   84.4507   10.9207 N.ar    1  UNL1       -0.2851
     15 C          60.9138   86.6776    8.5619 C.2     1  UNL1        0.2682
     16 O          59.8946   86.1743    7.5832 O.2     1  UNL1       -0.2682
     17 N          60.9926   88.1422    8.8760 N.am    1  UNL1       -0.2713
     18 C          60.0522   89.1035    8.2115 C.3     1  UNL1        0.1153
     19 C          62.0118   88.6457    9.8547 C.3     1  UNL1        0.1153
     20 C          62.9895   85.9823   16.7811 C.3     1  UNL1        0.0770
     21 N          64.3218   89.6179   14.4882 N.pl3   1  UNL1       -0.3046
     22 C          64.7237   88.2494   14.0238 C.3     1  UNL1        0.1081
     23 C          64.2796   87.0375   14.7881 C.3     1  UNL1        0.0938
     24 N          63.4336   87.1941   16.0168 N.3     1  UNL1       -0.2695
     25 C          63.0317   88.5627   16.4812 C.3     1  UNL1        0.0938
     26 C          63.4757   89.7745   15.7169 C.3     1  UNL1        0.1081
     27 C          69.0493   94.3852   15.9623 C.3     1  UNL1        0.0521
     28 C          67.9784   93.4963   15.4027 C.ar    1  UNL1        0.0593
     29 C          67.5343   92.2845   16.1670 C.ar    1  UNL1        0.0148
     30 C          66.4635   91.3956   15.6074 C.ar    1  UNL1        0.0039
     31 C          65.8367   91.7186   14.2835 C.ar    1  UNL1        0.0310
     32 C          64.7658   90.8297   13.7239 C.ar    1  UNL1        0.0493
     33 C          64.1390   91.1527   12.3999 C.ar    1  UNL1        0.0146
     34 C          64.5831   92.3645   11.6356 C.ar    1  UNL1        0.0028
     35 C          65.6540   93.2534   12.1952 C.ar    1  UNL1        0.0192
     36 C          66.2808   92.9304   13.5191 C.ar    1  UNL1        0.0821
     37 N          67.3516   93.8193   14.0787 N.ar    1  UNL1       -0.2496
@<TRIPOS>BOND
     1    27    28    1
     2    28    29   ar
     3    29    30   ar
     4    30    31   ar
     5    31    32   ar
     6    32    21    1
     7    21    22    1
     8    22    23    1
     9    23    24    1
    10    24    20    1
    11    20     1    1
    12     1     2    1
    13     2     3   ar
    14     3     4   ar
    15     4     5   ar
    16     5     6   ar
    17     6     7   ar
    18     7     8    1
    19     8     9    1
    20     9    10    1
    21    10    11   ar
    22    11    15    1
    23    15    16    2
    24    15    17   am
    25    17    18    1
    26    17    19    1
    27    11    12   ar
    28    12    13   ar
    29    13    14   ar
    30    24    25    1
    31    25    26    1
    32    32    33   ar
    33    33    34   ar
    34    34    35   ar
    35    35    36   ar
    36    36    37   ar
    37    37    28   ar
    38    36    31   ar
    39    26    21    1
    40     7     2   ar
    41    14    10   ar
    42    14     6    1
@<TRIPOS>MOLECULE
*****
 37 42 0 0 0
SMALL
GASTEIGER

@<TRIPOS>ATOM
      1 C          59.4612   90.0909    7.6030 C.3     1  UNL1        0.0468
      2 C          60.0544   88.9135    8.3186 C.ar    1  UNL1        0.0146
      3 C          59.7869   87.5228    7.8243 C.ar    1  UNL1       -0.0011
      4 C          60.3800   86.3455    8.5399 C.ar    1  UNL1        0.0014
      5 C          61.2407   86.5589    9.7497 C.ar    1  UNL1        0.0206
      6 C          61.5083   87.9496   10.2440 C.ar    1  UNL1        0.0989
      7 C          60.9151   89.1269    9.5284 C.ar    1  UNL1        0.1511
      8 O          61.1826   90.5177   10.0227 O.3     1  UNL1       -0.4678
      9 C          62.0433   90.7311   11.2325 C.3     1  UNL1        0.2510
     10 C          62.6365   89.5537   11.9480 C.ar    1  UNL1        0.1087
     11 C          63.5175   89.4542   13.1580 C.ar    1  UNL1        0.1518
     12 N          63.7944   88.0019   13.4115 N.ar    1  UNL1       -0.2192
     13 C          63.0846   87.2039   12.3583 C.ar    1  UNL1        0.1828
     14 N          62.3690   88.1630   11.4538 N.ar    1  UNL1       -0.2851
     15 C          64.0313   90.6049   13.9715 C.2     1  UNL1        0.2682
     16 O          64.7098   91.7585   13.2942 O.2     1  UNL1       -0.2682
     17 N          63.8665   90.6019   15.4625 N.am    1  UNL1       -0.2713
     18 C          64.3803   91.7526   16.2760 C.3     1  UNL1        0.1153
     19 C          63.1879   89.4484   16.1399 C.3     1  UNL1        0.1153
     20 C          59.0394   89.9625    6.1693 C.3     1  UNL1        0.0770
     21 N          60.9766   92.5228    3.0161 N.pl3   1  UNL1       -0.3046
     22 C          61.7830   91.4851    3.7393 C.3     1  UNL1        0.1081
     23 C          61.1373   90.6317    4.7904 C.3     1  UNL1        0.0938
     24 N          59.6852   90.8159    5.1183 N.3     1  UNL1       -0.2695
     25 C          58.8788   91.8536    4.3950 C.3     1  UNL1        0.0938
     26 C          59.5245   92.7070    3.3440 C.3     1  UNL1        0.1081
     27 C          59.3114   93.5832   -3.5681 C.3     1  UNL1        0.0521
     28 C          59.8891   93.5314   -2.1848 C.ar    1  UNL1        0.0593
     29 C          59.2434   92.6780   -1.1338 C.ar    1  UNL1        0.0148
     30 C          59.8212   92.6263    0.2495 C.ar    1  UNL1        0.0039
     31 C          61.0446   93.4279    0.5818 C.ar    1  UNL1        0.0310
     32 C          61.6223   93.3762    1.9651 C.ar    1  UNL1        0.0493
     33 C          62.8459   94.1779    2.2974 C.ar    1  UNL1        0.0146
     34 C          63.4916   95.0313    1.2463 C.ar    1  UNL1        0.0028
     35 C          62.9139   95.0830   -0.1370 C.ar    1  UNL1        0.0192
     36 C          61.6904   94.2814   -0.4693 C.ar    1  UNL1        0.0821
     37 N          61.1127   94.3331   -1.8526 N.ar    1  UNL1       -0.2496
@<TRIPOS>BOND
     1    27    28    1
     2    28    29   ar
     3    29    30   ar
     4    30    31   ar
     5    31    32   ar
     6    32    21    1
     7    21    22    1
     8    22    23    1
     9    23    24    1
    10    24    20    1
    11    20     1    1
    12     1     2    1
    13     2     3   ar
    14     3     4   ar
    15     4     5   ar
    16     5     6   ar
    17     6     7   ar
    18     7     8    1
    19     8     9    1
    20     9    10    1
    21    10    11   ar
    22    11    15    1
    23    15    16    2
    24    15    17   am
    25    17    18    1
    26    17    19    1
    27    11    12   ar
    28    12    13   ar
    29    13    14   ar
    30    24    25    1
    31    25    26    1
    32    32    33   ar
    33    33    34   ar
    34    34    35   ar
    35    35    36   ar
    36    36    37   ar
    37    37    28   ar
    38    36    31   ar
    39    26    21    1
    40     7     2   ar
    41    14    10   ar
    42    14     6    1
@<TRIPOS>MOLECULE
*****
 37 42 0 0 0
SMALL
GASTEIGER

@<TRIPOS>ATOM
      1 C          59.7650   87.6742    9.3276 C.3     1  UNL1        0.0468
      2 C          60.7924   86.6352    8.9882 C.ar    1  UNL1        0.0146
      3 C          61.0633   86.2887    7.5542 C.ar    1  UNL1       -0.0011
      4 C          62.0906   85.2498    7.2149 C.ar    1  UNL1        0.0014
      5 C          62.8471   84.5574    8.3096 C.ar    1  UNL1        0.0206
      6 C          62.5762   84.9040    9.7436 C.ar    1  UNL1        0.0989
      7 C          61.5489   85.9429   10.0829 C.ar    1  UNL1        0.1511
      8 O          61.2779   86.2895   11.5170 O.3     1  UNL1       -0.4678
      9 C          62.0344   85.5971   12.6117 C.3     1  UNL1        0.2510
     10 C          63.0618   84.5582   12.2723 C.ar    1  UNL1        0.1087
     11 C          63.9575   83.7147   13.1303 C.ar    1  UNL1        0.1518
     12 N          64.7820   82.8467   12.2265 N.ar    1  UNL1       -0.2192
     13 C          64.3958   83.1539   10.8100 C.ar    1  UNL1        0.1828
     14 N          63.3327   84.2116   10.8383 N.ar    1  UNL1       -0.2851
     15 C          64.0181   83.7354   14.6289 C.2     1  UNL1        0.2682
     16 O          63.8360   82.4646   15.4046 O.2     1  UNL1       -0.2682
     17 N          64.2609   85.0271   15.3519 N.am    1  UNL1       -0.2713
     18 C          64.3215   85.0479   16.8505 C.3     1  UNL1        0.1153
     19 C          64.4430   86.2980   14.5762 C.3     1  UNL1        0.1153
     20 C          59.9053   88.4863   10.5809 C.3     1  UNL1        0.0770
     21 N          63.3984   91.2803   11.0725 N.pl3   1  UNL1       -0.3046
     22 C          62.7896   91.0719    9.7176 C.3     1  UNL1        0.1081
     23 C          61.6252   90.1406    9.5537 C.3     1  UNL1        0.0938
     24 N          61.0696   89.4176   10.7448 N.3     1  UNL1       -0.2695
     25 C          61.6784   89.6261   12.0998 C.3     1  UNL1        0.0938
     26 C          62.8428   90.5574   12.2636 C.3     1  UNL1        0.1081
     27 C          67.7368   92.1794   16.3279 C.3     1  UNL1        0.0521
     28 C          66.9433   92.1874   15.0550 C.ar    1  UNL1        0.0593
     29 C          65.7790   91.2561   14.8912 C.ar    1  UNL1        0.0148
     30 C          64.9854   91.2642   13.6183 C.ar    1  UNL1        0.0039
     31 C          65.3562   92.2036   12.5093 C.ar    1  UNL1        0.0310
     32 C          64.5627   92.2116   11.2364 C.ar    1  UNL1        0.0493
     33 C          64.9336   93.1511   10.1273 C.ar    1  UNL1        0.0146
     34 C          66.0979   94.0824   10.2912 C.ar    1  UNL1        0.0028
     35 C          66.8914   94.0744   11.5641 C.ar    1  UNL1        0.0192
     36 C          66.5206   93.1350   12.6731 C.ar    1  UNL1        0.0821
     37 N          67.3142   93.1269   13.9460 N.ar    1  UNL1       -0.2496
@<TRIPOS>BOND
     1    27    28    1
     2    28    29   ar
     3    29    30   ar
     4    30    31   ar
     5    31    32   ar
     6    32    21    1
     7    21    22    1
     8    22    23    1
     9    23    24    1
    10    24    20    1
    11    20     1    1
    12     1     2    1
    13     2     3   ar
    14     3     4   ar
    15     4     5   ar
    16     5     6   ar
    17     6     7   ar
    18     7     8    1
    19     8     9    1
    20     9    10    1
    21    10    11   ar
    22    11    15    1
    23    15    16    2
    24    15    17   am
    25    17    18    1
    26    17    19    1
    27    11    12   ar
    28    12    13   ar
    29    13    14   ar
    30    24    25    1
    31    25    26    1
    32    32    33   ar
    33    33    34   ar
    34    34    35   ar
    35    35    36   ar
    36    36    37   ar
    37    37    28   ar
    38    36    31   ar
    39    26    21    1
    40     7     2   ar
    41    14    10   ar
    42    14     6    1
@<TRIPOS>MOLECULE
*****
 37 42 0 0 0
SMALL
GASTEIGER

@<TRIPOS>ATOM
      1 C          60.2843   89.5244    6.6115 C.3     1  UNL1        0.0468
      2 C          59.5198   90.4434    5.7055 C.ar    1  UNL1        0.0146
      3 C          58.0332   90.5775    5.8542 C.ar    1  UNL1       -0.0011
      4 C          57.2687   91.4965    4.9482 C.ar    1  UNL1        0.0014
      5 C          57.9908   92.2814    3.8934 C.ar    1  UNL1        0.0206
      6 C          59.4773   92.1473    3.7446 C.ar    1  UNL1        0.0989
      7 C          60.2418   91.2283    4.6506 C.ar    1  UNL1        0.1511
      8 O          61.7284   91.0941    4.5019 O.3     1  UNL1       -0.4678
      9 C          62.4505   91.8790    3.4471 C.3     1  UNL1        0.2510
     10 C          61.6859   92.7980    2.5410 C.ar    1  UNL1        0.1087
     11 C          62.1220   93.6921    1.4184 C.ar    1  UNL1        0.1518
     12 N          60.9049   94.3789    0.8733 N.ar    1  UNL1       -0.2192
     13 C          59.7167   93.9092    1.6591 C.ar    1  UNL1        0.1828
     14 N          60.1994   92.9321    2.6898 N.ar    1  UNL1       -0.2851
     15 C          63.5282   93.8685    0.9271 C.2     1  UNL1        0.2682
     16 O          64.4511   92.6883    0.8548 O.2     1  UNL1       -0.2682
     17 N          64.0116   95.2253    0.5081 N.am    1  UNL1       -0.2713
     18 C          65.4178   95.4017    0.0168 C.3     1  UNL1        0.1153
     19 C          63.0888   96.4056    0.5803 C.3     1  UNL1        0.1153
     20 C          59.6288   88.9655    7.8395 C.3     1  UNL1        0.0770
     21 N          62.1468   87.5869   11.3049 N.pl3   1  UNL1       -0.3046
     22 C          62.4356   88.9023   10.6444 C.3     1  UNL1        0.1081
     23 C          61.5963   89.3619    9.4892 C.3     1  UNL1        0.0938
     24 N          60.4681   88.5060    8.9946 N.3     1  UNL1       -0.2695
     25 C          60.1792   87.1906    9.6552 C.3     1  UNL1        0.0938
     26 C          61.0186   86.7310   10.8103 C.3     1  UNL1        0.1081
     27 C          63.8160   81.2631   13.4199 C.3     1  UNL1        0.0521
     28 C          63.6085   82.7292   13.1799 C.ar    1  UNL1        0.0593
     29 C          62.7692   83.1887   12.0248 C.ar    1  UNL1        0.0148
     30 C          62.5617   84.6548   11.7848 C.ar    1  UNL1        0.0039
     31 C          63.1936   85.6613   12.7000 C.ar    1  UNL1        0.0310
     32 C          62.9861   87.1274   12.4600 C.ar    1  UNL1        0.0493
     33 C          63.6180   88.1340   13.3752 C.ar    1  UNL1        0.0146
     34 C          64.4573   87.6745   14.5303 C.ar    1  UNL1        0.0028
     35 C          64.6648   86.2084   14.7703 C.ar    1  UNL1        0.0192
     36 C          64.0329   85.2018   13.8552 C.ar    1  UNL1        0.0821
     37 N          64.2404   83.7357   14.0951 N.ar    1  UNL1       -0.2496
@<TRIPOS>BOND
     1    27    28    1
     2    28    29   ar
     3    29    30   ar
     4    30    31   ar
     5    31    32   ar
     6    32    21    1
     7    21    22    1
     8    22    23    1
     9    23    24    1
    10    24    20    1
    11    20     1    1
    12     1     2    1
    13     2     3   ar
    14     3     4   ar
    15     4     5   ar
    16     5     6   ar
    17     6     7   ar
    18     7     8    1
    19     8     9    1
    20     9    10    1
    21    10    11   ar
    22    11    15    1
    23    15    16    2
    24    15    17   am
    25    17    18    1
    26    17    19    1
    27    11    12   ar
    28    12    13   ar
    29    13    14   ar
    30    24    25    1
    31    25    26    1
    32    32    33   ar
    33    33    34   ar
    34    34    35   ar
    35    35    36   ar
    36    36    37   ar
    37    37    28   ar
    38    36    31   ar
    39    26    21    1
    40     7     2   ar
    41    14    10   ar
    42    14     6    1
@<TRIPOS>MOLECULE
*****
 37 42 0 0 0
SMALL
GASTEIGER

@<TRIPOS>ATOM
      1 C          59.3552   88.5432   11.3006 C.3     1  UNL1        0.0468
      2 C          60.1121   87.7686   10.2627 C.ar    1  UNL1        0.0146
      3 C          59.9406   88.0963    8.8091 C.ar    1  UNL1       -0.0011
      4 C          60.6974   87.3217    7.7713 C.ar    1  UNL1        0.0014
      5 C          61.6258   86.2193    8.1872 C.ar    1  UNL1        0.0206
      6 C          61.7974   85.8916    9.6408 C.ar    1  UNL1        0.0989
      7 C          61.0405   86.6662   10.6786 C.ar    1  UNL1        0.1511
      8 O          61.2120   86.3386   12.1323 O.3     1  UNL1       -0.4678
      9 C          62.1404   85.2362   12.5482 C.3     1  UNL1        0.2510
     10 C          62.8973   84.4616   11.5103 C.ar    1  UNL1        0.1087
     11 C          63.8756   83.3297   11.6181 C.ar    1  UNL1        0.1518
     12 N          64.3088   82.9578   10.2309 N.ar    1  UNL1       -0.2192
     13 C          63.5981   83.8599    9.2659 C.ar    1  UNL1        0.1828
     14 N          62.7258   84.7893   10.0567 N.ar    1  UNL1       -0.2851
     15 C          64.3394   82.6832   12.8896 C.2     1  UNL1        0.2682
     16 O          65.2950   83.4050   13.7929 O.2     1  UNL1       -0.2682
     17 N          63.8476   81.3148   13.2579 N.am    1  UNL1       -0.2713
     18 C          64.3114   80.6683   14.5295 C.3     1  UNL1        0.1153
     19 C          62.8920   80.5929   12.3547 C.3     1  UNL1        0.1153
     20 C          59.6992   89.9794   11.5635 C.3     1  UNL1        0.0770
     21 N          63.9910   91.3257   11.4314 N.pl3   1  UNL1       -0.3046
     22 C          63.4369   90.7082   12.6810 C.3     1  UNL1        0.1081
     23 C          62.0062   90.2594   12.7250 C.3     1  UNL1        0.0938
     24 N          61.1298   90.4282   11.5195 N.3     1  UNL1       -0.2695
     25 C          61.6840   91.0457   10.2698 C.3     1  UNL1        0.0938
     26 C          63.1146   91.4945   10.2258 C.3     1  UNL1        0.1081
     27 C          68.5678   92.2712   16.4721 C.3     1  UNL1        0.0521
     28 C          67.7813   92.1470   15.2009 C.ar    1  UNL1        0.0593
     29 C          66.3507   91.6983   15.2449 C.ar    1  UNL1        0.0148
     30 C          65.5641   91.5741   13.9738 C.ar    1  UNL1        0.0039
     31 C          66.2082   91.8987   12.6585 C.ar    1  UNL1        0.0310
     32 C          65.4216   91.7745   11.3874 C.ar    1  UNL1        0.0493
     33 C          66.0657   92.0991   10.0721 C.ar    1  UNL1        0.0146
     34 C          67.4963   92.5478   10.0281 C.ar    1  UNL1        0.0028
     35 C          68.2829   92.6720   11.2993 C.ar    1  UNL1        0.0192
     36 C          67.6388   92.3474   12.6145 C.ar    1  UNL1        0.0821
     37 N          68.4254   92.4716   13.8857 N.ar    1  UNL1       -0.2496
@<TRIPOS>BOND
     1    27    28    1
     2    28    29   ar
     3    29    30   ar
     4    30    31   ar
     5    31    32   ar
     6    32    21    1
     7    21    22    1
     8    22    23    1
     9    23    24    1
    10    24    20    1
    11    20     1    1
    12     1     2    1
    13     2     3   ar
    14     3     4   ar
    15     4     5   ar
    16     5     6   ar
    17     6     7   ar
    18     7     8    1
    19     8     9    1
    20     9    10    1
    21    10    11   ar
    22    11    15    1
    23    15    16    2
    24    15    17   am
    25    17    18    1
    26    17    19    1
    27    11    12   ar
    28    12    13   ar
    29    13    14   ar
    30    24    25    1
    31    25    26    1
    32    32    33   ar
    33    33    34   ar
    34    34    35   ar
    35    35    36   ar
    36    36    37   ar
    37    37    28   ar
    38    36    31   ar
    39    26    21    1
    40     7     2   ar
    41    14    10   ar
    42    14     6    1
@<TRIPOS>MOLECULE
*****
 37 42 0 0 0
SMALL
GASTEIGER

@<TRIPOS>ATOM
      1 C          59.7810   88.5808    7.6854 C.3     1  UNL1        0.0468
      2 C          60.5474   88.7965    8.9567 C.ar    1  UNL1        0.0146
      3 C          60.7052   90.1811    9.5116 C.ar    1  UNL1       -0.0011
      4 C          61.4715   90.3968   10.7829 C.ar    1  UNL1        0.0014
      5 C          62.0800   89.2279   11.4993 C.ar    1  UNL1        0.0206
      6 C          61.9222   87.8433   10.9445 C.ar    1  UNL1        0.0989
      7 C          61.1559   87.6276    9.6732 C.ar    1  UNL1        0.1511
      8 O          60.9981   86.2429    9.1183 O.3     1  UNL1       -0.4678
      9 C          61.6066   85.0740    9.8347 C.3     1  UNL1        0.2510
     10 C          62.3729   85.2897   11.1061 C.ar    1  UNL1        0.1087
     11 C          63.0791   84.3384   12.0260 C.ar    1  UNL1        0.1518
     12 N          63.6733   85.1351   13.1495 N.ar    1  UNL1       -0.2192
     13 C          63.3344   86.5788   12.9238 C.ar    1  UNL1        0.1828
     14 N          62.5307   86.6743   11.6609 N.ar    1  UNL1       -0.2851
     15 C          63.1742   82.8515   11.8529 C.2     1  UNL1        0.2682
     16 O          63.7914   82.2788   10.6115 O.2     1  UNL1       -0.2682
     17 N          62.6523   81.9371   12.9214 N.am    1  UNL1       -0.2713
     18 C          62.7475   80.4502   12.7483 C.3     1  UNL1        0.1153
     19 C          62.0351   82.5097   14.1629 C.3     1  UNL1        0.1153
     20 C          58.8176   89.6248    7.2041 C.3     1  UNL1        0.0770
     21 N          59.7689   92.0414    3.5292 N.pl3   1  UNL1       -0.3046
     22 C          60.8608   91.3019    4.2439 C.3     1  UNL1        0.1081
     23 C          60.5437   90.4963    5.4689 C.3     1  UNL1        0.0938
     24 N          59.1347   90.4304    5.9792 N.3     1  UNL1       -0.2695
     25 C          58.0428   91.1700    5.2644 C.3     1  UNL1        0.0938
     26 C          58.3599   91.9755    4.0395 C.3     1  UNL1        0.1081
     27 C          65.7928   93.6408    0.6301 C.3     1  UNL1        0.0521
     28 C          64.3661   93.4423    1.0486 C.ar    1  UNL1        0.0593
     29 C          64.0490   92.6368    2.2736 C.ar    1  UNL1        0.0148
     30 C          62.6223   92.4384    2.6921 C.ar    1  UNL1        0.0039
     31 C          61.5127   93.0454    1.8857 C.ar    1  UNL1        0.0310
     32 C          60.0860   92.8470    2.3043 C.ar    1  UNL1        0.0493
     33 C          58.9765   93.4541    1.4978 C.ar    1  UNL1        0.0146
     34 C          59.2936   94.2596    0.2729 C.ar    1  UNL1        0.0028
     35 C          60.7203   94.4580   -0.1457 C.ar    1  UNL1        0.0192
     36 C          61.8298   93.8510    0.6607 C.ar    1  UNL1        0.0821
     37 N          63.2565   94.0494    0.2422 N.ar    1  UNL1       -0.2496
@<TRIPOS>BOND
     1    27    28    1
     2    28    29   ar
     3    29    30   ar
     4    30    31   ar
     5    31    32   ar
     6    32    21    1
     7    21    22    1
     8    22    23    1
     9    23    24    1
    10    24    20    1
    11    20     1    1
    12     1     2    1
    13     2     3   ar
    14     3     4   ar
    15     4     5   ar
    16     5     6   ar
    17     6     7   ar
    18     7     8    1
    19     8     9    1
    20     9    10    1
    21    10    11   ar
    22    11    15    1
    23    15    16    2
    24    15    17   am
    25    17    18    1
    26    17    19    1
    27    11    12   ar
    28    12    13   ar
    29    13    14   ar
    30    24    25    1
    31    25    26    1
    32    32    33   ar
    33    33    34   ar
    34    34    35   ar
    35    35    36   ar
    36    36    37   ar
    37    37    28   ar
    38    36    31   ar
    39    26    21    1
    40     7     2   ar
    41    14    10   ar
    42    14     6    1
@<TRIPOS>MOLECULE
*****
 37 42 0 0 0
SMALL
GASTEIGER

@<TRIPOS>ATOM
      1 C          59.7027   88.8629    7.2443 C.3     1  UNL1        0.0468
      2 C          60.3070   89.0149    8.6087 C.ar    1  UNL1        0.0146
      3 C          60.2442   90.3374    9.3137 C.ar    1  UNL1       -0.0011
      4 C          60.8485   90.4893   10.6781 C.ar    1  UNL1        0.0014
      5 C          61.5157   89.3188   11.3376 C.ar    1  UNL1        0.0206
      6 C          61.5785   87.9964   10.6326 C.ar    1  UNL1        0.0989
      7 C          60.9742   87.8444    9.2682 C.ar    1  UNL1        0.1511
      8 O          61.0370   86.5219    8.5631 O.3     1  UNL1       -0.4678
      9 C          61.7042   85.3514    9.2225 C.3     1  UNL1        0.2510
     10 C          62.3085   85.5034   10.5870 C.ar    1  UNL1        0.1087
     11 C          63.0261   84.5355   11.4803 C.ar    1  UNL1        0.1518
     12 N          63.4067   85.2598   12.7375 N.ar    1  UNL1       -0.2192
     13 C          62.9244   86.6753   12.6211 C.ar    1  UNL1        0.1828
     14 N          62.2457   86.8259   11.2920 N.ar    1  UNL1       -0.2851
     15 C          63.3127   83.0960   11.1709 C.2     1  UNL1        0.2682
     16 O          64.0417   82.7302    9.9121 O.2     1  UNL1       -0.2682
     17 N          62.8702   82.0223   12.1204 N.am    1  UNL1       -0.2713
     18 C          63.1568   80.5828   11.8109 C.3     1  UNL1        0.1153
     19 C          62.1412   82.3880   13.3792 C.3     1  UNL1        0.1153
     20 C          59.0148   90.0269    6.5947 C.3     1  UNL1        0.0770
     21 N          61.0331   92.2484    3.2420 N.pl3   1  UNL1       -0.3046
     22 C          61.7775   91.1829    3.9907 C.3     1  UNL1        0.1081
     23 C          61.1047   90.4423    5.1083 C.3     1  UNL1        0.0938
     24 N          59.6876   90.7674    5.4772 N.3     1  UNL1       -0.2695
     25 C          58.9432   91.8330    4.7284 C.3     1  UNL1        0.0938
     26 C          59.6160   92.5734    3.6109 C.3     1  UNL1        0.1081
     27 C          59.0424   93.3950   -3.2366 C.3     1  UNL1        0.0521
     28 C          59.7083   93.2934   -1.8963 C.ar    1  UNL1        0.0593
     29 C          59.0355   92.5530   -0.7788 C.ar    1  UNL1        0.0148
     30 C          59.7014   92.4514    0.5615 C.ar    1  UNL1        0.0039
     31 C          61.0401   93.0904    0.7842 C.ar    1  UNL1        0.0310
     32 C          61.7059   92.9889    2.1244 C.ar    1  UNL1        0.0493
     33 C          63.0447   93.6279    2.3471 C.ar    1  UNL1        0.0146
     34 C          63.7175   94.3684    1.2296 C.ar    1  UNL1        0.0028
     35 C          63.0516   94.4699   -0.1107 C.ar    1  UNL1        0.0192
     36 C          61.7129   93.8310   -0.3334 C.ar    1  UNL1        0.0821
     37 N          61.0470   93.9325   -1.6737 N.ar    1  UNL1       -0.2496
@<TRIPOS>BOND
     1    27    28    1
     2    28    29   ar
     3    29    30   ar
     4    30    31   ar
     5    31    32   ar
     6    32    21    1
     7    21    22    1
     8    22    23    1
     9    23    24    1
    10    24    20    1
    11    20     1    1
    12     1     2    1
    13     2     3   ar
    14     3     4   ar
    15     4     5   ar
    16     5     6   ar
    17     6     7   ar
    18     7     8    1
    19     8     9    1
    20     9    10    1
    21    10    11   ar
    22    11    15    1
    23    15    16    2
    24    15    17   am
    25    17    18    1
    26    17    19    1
    27    11    12   ar
    28    12    13   ar
    29    13    14   ar
    30    24    25    1
    31    25    26    1
    32    32    33   ar
    33    33    34   ar
    34    34    35   ar
    35    35    36   ar
    36    36    37   ar
    37    37    28   ar
    38    36    31   ar
    39    26    21    1
    40     7     2   ar
    41    14    10   ar
    42    14     6    1
@<TRIPOS>MOLECULE
*****
 37 42 0 0 0
SMALL
GASTEIGER

@<TRIPOS>ATOM
      1 C          59.5956   89.7427    7.6165 C.3     1  UNL1        0.0468
      2 C          60.2174   88.6648    8.4542 C.ar    1  UNL1        0.0146
      3 C          59.9764   87.2225    8.1203 C.ar    1  UNL1       -0.0011
      4 C          60.5983   86.1447    8.9579 C.ar    1  UNL1        0.0014
      5 C          61.4611   86.5093   10.1295 C.ar    1  UNL1        0.0206
      6 C          61.7020   87.9517   10.4635 C.ar    1  UNL1        0.0989
      7 C          61.0802   89.0294    9.6258 C.ar    1  UNL1        0.1511
      8 O          61.3212   90.4718    9.9597 O.3     1  UNL1       -0.4678
      9 C          62.1840   90.8364   11.1313 C.3     1  UNL1        0.2510
     10 C          62.8058   89.7586   11.9690 C.ar    1  UNL1        0.1087
     11 C          63.6955   89.8128   13.1754 C.ar    1  UNL1        0.1518
     12 N          64.0044   88.4038   13.5872 N.ar    1  UNL1       -0.2192
     13 C          63.3056   87.4789   12.6352 C.ar    1  UNL1        0.1828
     14 N          62.5648   88.3162   11.6351 N.ar    1  UNL1       -0.2851
     15 C          64.1895   91.0573   13.8515 C.2     1  UNL1        0.2682
     16 O          63.6761   91.4262   15.2117 O.2     1  UNL1       -0.2682
     17 N          65.1970   91.9329   13.1672 N.am    1  UNL1       -0.2713
     18 C          65.6910   93.1775   13.8432 C.3     1  UNL1        0.1153
     19 C          65.7105   91.5641   11.8070 C.3     1  UNL1        0.1153
     20 C          59.4373   89.5460    6.1379 C.3     1  UNL1        0.0770
     21 N          60.1792   92.9749    3.3198 N.pl3   1  UNL1       -0.3046
     22 C          58.7911   92.6996    3.8169 C.3     1  UNL1        0.1081
     23 C          58.5437   91.5566    4.7563 C.3     1  UNL1        0.0938
     24 N          59.6846   90.6889    5.1986 N.3     1  UNL1       -0.2695
     25 C          61.0728   90.9643    4.7014 C.3     1  UNL1        0.0938
     26 C          61.3201   92.1072    3.7620 C.3     1  UNL1        0.1081
     27 C          62.6464   93.0745   -3.0953 C.3     1  UNL1        0.0521
     28 C          62.0914   93.3354   -1.7263 C.ar    1  UNL1        0.0593
     29 C          61.8441   92.1924   -0.7870 C.ar    1  UNL1        0.0148
     30 C          61.2892   92.4532    0.5819 C.ar    1  UNL1        0.0039
     31 C          60.9815   93.8570    1.0115 C.ar    1  UNL1        0.0310
     32 C          60.4265   94.1179    2.3804 C.ar    1  UNL1        0.0493
     33 C          60.1188   95.5218    2.8100 C.ar    1  UNL1        0.0146
     34 C          60.3661   96.6648    1.8707 C.ar    1  UNL1        0.0028
     35 C          60.9211   96.4039    0.5017 C.ar    1  UNL1        0.0192
     36 C          61.2288   95.0001    0.0721 C.ar    1  UNL1        0.0821
     37 N          61.7837   94.7393   -1.2968 N.ar    1  UNL1       -0.2496
@<TRIPOS>BOND
     1    27    28    1
     2    28    29   ar
     3    29    30   ar
     4    30    31   ar
     5    31    32   ar
     6    32    21    1
     7    21    22    1
     8    22    23    1
     9    23    24    1
    10    24    20    1
    11    20     1    1
    12     1     2    1
    13     2     3   ar
    14     3     4   ar
    15     4     5   ar
    16     5     6   ar
    17     6     7   ar
    18     7     8    1
    19     8     9    1
    20     9    10    1
    21    10    11   ar
    22    11    15    1
    23    15    16    2
    24    15    17   am
    25    17    18    1
    26    17    19    1
    27    11    12   ar
    28    12    13   ar
    29    13    14   ar
    30    24    25    1
    31    25    26    1
    32    32    33   ar
    33    33    34   ar
    34    34    35   ar
    35    35    36   ar
    36    36    37   ar
    37    37    28   ar
    38    36    31   ar
    39    26    21    1
    40     7     2   ar
    41    14    10   ar
    42    14     6    1
