@<TRIPOS>MOLECULE
*****
 15 16 0 0 0
SMALL
GASTEIGER

@<TRIPOS>ATOM
      1 C          60.4978   87.2699    9.0769 C.ar    1  UNL1        0.1385
      2 C          61.2181   88.1931   10.0145 C.ar    1  UNL1        0.0375
      3 C          62.1587   87.3701   10.8438 C.ar    1  UNL1        0.0404
      4 C          62.0197   85.9382   10.4189 C.ar    1  UNL1        0.1464
      5 O          60.9932   85.8764    9.3269 O.2     1  UNL1       -0.4563
      6 C          62.7747   84.7729   10.9864 C.ar    1  UNL1        0.0537
      7 C          63.5691   83.8805   10.0794 C.ar    1  UNL1        0.0062
      8 C          64.3240   82.7152   10.6469 C.ar    1  UNL1        0.0208
      9 C          64.2846   82.4423   12.1213 C.ar    1  UNL1        0.0989
     10 N          63.4902   83.3346   13.0283 N.ar    1  UNL1       -0.2422
     11 C          62.7352   84.4999   12.4608 C.ar    1  UNL1        0.1019
     12 N          58.3441   86.7313    7.7273 N.3     1  UNL1       -0.3148
     13 C          59.4636   87.6701    8.0668 C.3     1  UNL1        0.1307
     14 H          57.7391   87.1623    7.0282 H       1  UNL1        0.1192
     15 H          57.8025   86.5299    8.5679 H       1  UNL1        0.1192
@<TRIPOS>BOND
     1    12    13    1
     2    13     1    1
     3     1     2   ar
     4     2     3   ar
     5     3     4   ar
     6     4     6    1
     7     6     7   ar
     8     7     8   ar
     9     8     9   ar
    10     9    10   ar
    11    10    11   ar
    12     4     5   ar
    13     5     1   ar
    14    11     6   ar
    15    12    14    1
    16    12    15    1
@<TRIPOS>MOLECULE
*****
 15 16 0 0 0
SMALL
GASTEIGER

@<TRIPOS>ATOM
      1 C          67.3433   94.1906    9.0856 C.ar    1  UNL1        0.1385
      2 C          68.2683   93.0115    9.0198 C.ar    1  UNL1        0.0375
      3 C          68.0186   92.1586   10.2282 C.ar    1  UNL1        0.0404
      4 C          66.9394   92.8106   11.0409 C.ar    1  UNL1        0.1464
      5 O          66.5221   94.0664   10.3347 O.2     1  UNL1       -0.4563
      6 C          66.3764   92.2968   12.3329 C.ar    1  UNL1        0.0537
      7 C          67.2878   92.0254   13.4929 C.ar    1  UNL1        0.0062
      8 C          66.7248   91.5117   14.7848 C.ar    1  UNL1        0.0208
      9 C          65.2504   91.2694   14.9167 C.ar    1  UNL1        0.0989
     10 N          64.3390   91.5407   13.7567 N.ar    1  UNL1       -0.2422
     11 C          64.9020   92.0545   12.4648 C.ar    1  UNL1        0.1019
     12 N          67.8301   96.6478    8.3964 N.3     1  UNL1       -0.3148
     13 C          67.2551   95.2993    8.0791 C.3     1  UNL1        0.1307
     14 H          67.6823   97.2751    7.6057 H       1  UNL1        0.1192
     15 H          68.8300   96.5574    8.5764 H       1  UNL1        0.1192
@<TRIPOS>BOND
     1    12    13    1
     2    13     1    1
     3     1     2   ar
     4     2     3   ar
     5     3     4   ar
     6     4     6    1
     7     6     7   ar
     8     7     8   ar
     9     8     9   ar
    10     9    10   ar
    11    10    11   ar
    12     4     5   ar
    13     5     1   ar
    14    11     6   ar
    15    12    14    1
    16    12    15    1
@<TRIPOS>MOLECULE
*****
 15 16 0 0 0
SMALL
GASTEIGER

@<TRIPOS>ATOM
      1 C          60.6956   87.9064   10.8142 C.ar    1  UNL1        0.1385
      2 C          61.1142   87.6858    9.3907 C.ar    1  UNL1        0.0375
      3 C          61.9509   86.4419    9.3411 C.ar    1  UNL1        0.0404
      4 C          62.0495   85.8937   10.7339 C.ar    1  UNL1        0.1464
      5 O          61.2737   86.7988   11.6443 O.2     1  UNL1       -0.4563
      6 C          62.7933   84.6573   11.1442 C.ar    1  UNL1        0.0537
      7 C          63.5543   83.8660   10.1221 C.ar    1  UNL1        0.0062
      8 C          64.2981   82.6298   10.5325 C.ar    1  UNL1        0.0208
      9 C          64.2809   82.1849   11.9649 C.ar    1  UNL1        0.0989
     10 N          63.5199   82.9762   12.9869 N.ar    1  UNL1       -0.2422
     11 C          62.7761   84.2124   12.5766 C.ar    1  UNL1        0.1019
     12 N          60.1891   89.7089   12.6154 N.3     1  UNL1       -0.3148
     13 C          59.8478   89.0362   11.3189 C.3     1  UNL1        0.1307
     14 H          59.5125   90.4488   12.8030 H       1  UNL1        0.1192
     15 H          61.1244   90.1110   12.5539 H       1  UNL1        0.1192
@<TRIPOS>BOND
     1    12    13    1
     2    13     1    1
     3     1     2   ar
     4     2     3   ar
     5     3     4   ar
     6     4     6    1
     7     6     7   ar
     8     7     8   ar
     9     8     9   ar
    10     9    10   ar
    11    10    11   ar
    12     4     5   ar
    13     5     1   ar
    14    11     6   ar
    15    12    14    1
    16    12    15    1
@<TRIPOS>MOLECULE
*****
 15 16 0 0 0
SMALL
GASTEIGER

@<TRIPOS>ATOM
      1 C          61.4506   86.8852   10.9339 C.ar    1  UNL1        0.1385
      2 C          62.1536   86.3372    9.7274 C.ar    1  UNL1        0.0375
      3 C          62.7311   85.0022   10.0941 C.ar    1  UNL1        0.0404
      4 C          62.3850   84.7252   11.5271 C.ar    1  UNL1        0.1464
      5 O          61.5937   85.8890   12.0461 O.2     1  UNL1       -0.4563
      6 C          62.7639   83.4996   12.3046 C.ar    1  UNL1        0.0537
      7 C          62.6908   82.1485   11.6572 C.ar    1  UNL1        0.0062
      8 C          63.0697   80.9229   12.4347 C.ar    1  UNL1        0.0208
      9 C          63.5216   81.0485   13.8595 C.ar    1  UNL1        0.0989
     10 N          63.5946   82.3996   14.5068 N.ar    1  UNL1       -0.2422
     11 C          63.2158   83.6252   13.7293 C.ar    1  UNL1        0.1019
     12 N          59.5315   88.3439   11.9031 N.3     1  UNL1       -0.3148
     13 C          60.7309   88.1989   11.0141 C.3     1  UNL1        0.1307
     14 H          59.1708   89.2956   11.8349 H       1  UNL1        0.1192
     15 H          59.7982   88.1498   12.8683 H       1  UNL1        0.1192
@<TRIPOS>BOND
     1    12    13    1
     2    13     1    1
     3     1     2   ar
     4     2     3   ar
     5     3     4   ar
     6     4     6    1
     7     6     7   ar
     8     7     8   ar
     9     8     9   ar
    10     9    10   ar
    11    10    11   ar
    12     4     5   ar
    13     5     1   ar
    14    11     6   ar
    15    12    14    1
    16    12    15    1
@<TRIPOS>MOLECULE
*****
 15 16 0 0 0
SMALL
GASTEIGER

@<TRIPOS>ATOM
      1 C          60.7753   86.4665    9.1336 C.ar    1  UNL1        0.1385
      2 C          61.8929   85.9165    8.2978 C.ar    1  UNL1        0.0375
      3 C          62.8221   85.1640    9.2036 C.ar    1  UNL1        0.0404
      4 C          62.2788   85.2490   10.5992 C.ar    1  UNL1        0.1464
      5 O          61.0138   86.0540   10.5559 O.2     1  UNL1       -0.4563
      6 C          62.8927   84.6364   11.8231 C.ar    1  UNL1        0.0537
      7 C          63.3408   85.5119   12.9557 C.ar    1  UNL1        0.0062
      8 C          63.9547   84.8993   14.1795 C.ar    1  UNL1        0.0208
      9 C          64.1204   83.4113   14.2708 C.ar    1  UNL1        0.0989
     10 N          63.6723   82.5358   13.1383 N.ar    1  UNL1       -0.2422
     11 C          63.0584   83.1484   11.9144 C.ar    1  UNL1        0.1019
     12 N          58.5896   86.6618    7.7427 N.3     1  UNL1       -0.3148
     13 C          59.6218   87.2854    8.6347 C.3     1  UNL1        0.1307
     14 H          57.8838   87.3574    7.5014 H       1  UNL1        0.1192
     15 H          58.1465   85.8822    8.2288 H       1  UNL1        0.1192
@<TRIPOS>BOND
     1    12    13    1
     2    13     1    1
     3     1     2   ar
     4     2     3   ar
     5     3     4   ar
     6     4     6    1
     7     6     7   ar
     8     7     8   ar
     9     8     9   ar
    10     9    10   ar
    11    10    11   ar
    12     4     5   ar
    13     5     1   ar
    14    11     6   ar
    15    12    14    1
    16    12    15    1
@<TRIPOS>MOLECULE
*****
 15 16 0 0 0
SMALL
GASTEIGER

@<TRIPOS>ATOM
      1 C          63.7130   88.0597   13.4378 C.ar    1  UNL1        0.1385
      2 C          64.4338   87.7341   14.7124 C.ar    1  UNL1        0.0375
      3 C          64.4371   86.2430   14.8751 C.ar    1  UNL1        0.0404
      4 C          63.7182   85.6470   13.7011 C.ar    1  UNL1        0.1464
      5 O          63.2707   86.7698   12.8129 O.2     1  UNL1       -0.4563
      6 C          63.4874   84.1849   13.4581 C.ar    1  UNL1        0.0537
      7 C          62.9254   83.7221   12.1467 C.ar    1  UNL1        0.0062
      8 C          62.6946   82.2601   11.9038 C.ar    1  UNL1        0.0208
      9 C          63.0259   81.2608   12.9723 C.ar    1  UNL1        0.0989
     10 N          63.5880   81.7236   14.2837 N.ar    1  UNL1       -0.2422
     11 C          63.8188   83.1856   14.5266 C.ar    1  UNL1        0.1019
     12 N          62.9284   90.5141   13.7704 N.3     1  UNL1       -0.3148
     13 C          63.4760   89.4340   12.8853 C.3     1  UNL1        0.1307
     14 H          62.8316   91.3765   13.2344 H       1  UNL1        0.1192
     15 H          63.5656   90.6691   14.5516 H       1  UNL1        0.1192
@<TRIPOS>BOND
     1    12    13    1
     2    13     1    1
     3     1     2   ar
     4     2     3   ar
     5     3     4   ar
     6     4     6    1
     7     6     7   ar
     8     7     8   ar
     9     8     9   ar
    10     9    10   ar
    11    10    11   ar
    12     4     5   ar
    13     5     1   ar
    14    11     6   ar
    15    12    14    1
    16    12    15    1
@<TRIPOS>MOLECULE
*****
 15 16 0 0 0
SMALL
GASTEIGER

@<TRIPOS>ATOM
      1 C          60.3432   87.8689    8.7974 C.ar    1  UNL1        0.1385
      2 C          60.9425   86.7332    9.5727 C.ar    1  UNL1        0.0375
      3 C          61.9586   87.3025   10.5179 C.ar    1  UNL1        0.0404
      4 C          61.9872   88.7900   10.3268 C.ar    1  UNL1        0.1464
      5 O          60.9889   89.1401    9.2635 O.2     1  UNL1       -0.4563
      6 C          62.8609   89.7576   11.0689 C.ar    1  UNL1        0.0537
      7 C          63.3768   90.9847   10.3775 C.ar    1  UNL1        0.0062
      8 C          64.2505   91.9522   11.1196 C.ar    1  UNL1        0.0208
      9 C          64.6082   91.6926   12.5530 C.ar    1  UNL1        0.0989
     10 N          64.0923   90.4655   13.2443 N.ar    1  UNL1       -0.2422
     11 C          63.2186   89.4980   12.5023 C.ar    1  UNL1        0.1019
     12 N          58.3066   86.6167    7.7804 N.3     1  UNL1       -0.3148
     13 C          59.2841   87.7537    7.7414 C.3     1  UNL1        0.1307
     14 H          57.6629   86.6945    6.9931 H       1  UNL1        0.1192
     15 H          57.7810   86.6500    8.6539 H       1  UNL1        0.1192
@<TRIPOS>BOND
     1    12    13    1
     2    13     1    1
     3     1     2   ar
     4     2     3   ar
     5     3     4   ar
     6     4     6    1
     7     6     7   ar
     8     7     8   ar
     9     8     9   ar
    10     9    10   ar
    11    10    11   ar
    12     4     5   ar
    13     5     1   ar
    14    11     6   ar
    15    12    14    1
    16    12    15    1
@<TRIPOS>MOLECULE
*****
 15 16 0 0 0
SMALL
GASTEIGER

@<TRIPOS>ATOM
      1 C          63.6009   85.4967   15.8948 C.ar    1  UNL1        0.1385
      2 C          64.9431   85.8155   15.3056 C.ar    1  UNL1        0.0375
      3 C          65.1419   84.9391   14.1046 C.ar    1  UNL1        0.0404
      4 C          63.9228   84.0787   13.9516 C.ar    1  UNL1        0.1464
      5 O          62.9704   84.4233   15.0580 O.2     1  UNL1       -0.4563
      6 C          63.6959   83.0536   12.8802 C.ar    1  UNL1        0.0537
      7 C          64.1436   83.3260   11.4747 C.ar    1  UNL1        0.0062
      8 C          63.9167   82.3009   10.4034 C.ar    1  UNL1        0.0208
      9 C          63.2421   81.0035   10.7376 C.ar    1  UNL1        0.0989
     10 N          62.7944   80.7312   12.1430 N.ar    1  UNL1       -0.2422
     11 C          63.0213   81.7562   13.2143 C.ar    1  UNL1        0.1019
     12 N          61.5078   86.3013   17.2069 N.3     1  UNL1       -0.3148
     13 C          62.9956   86.1386   17.1079 C.3     1  UNL1        0.1307
     14 H          61.2732   86.7532   18.0907 H       1  UNL1        0.1192
     15 H          61.0620   85.3848   17.1647 H       1  UNL1        0.1192
@<TRIPOS>BOND
     1    12    13    1
     2    13     1    1
     3     1     2   ar
     4     2     3   ar
     5     3     4   ar
     6     4     6    1
     7     6     7   ar
     8     7     8   ar
     9     8     9   ar
    10     9    10   ar
    11    10    11   ar
    12     4     5   ar
    13     5     1   ar
    14    11     6   ar
    15    12    14    1
    16    12    15    1
@<TRIPOS>MOLECULE
*****
 15 16 0 0 0
SMALL
GASTEIGER

@<TRIPOS>ATOM
      1 C          61.5946   89.8771   11.4049 C.ar    1  UNL1        0.1385
      2 C          62.1504   90.4681   10.1431 C.ar    1  UNL1        0.0375
      3 C          63.4171   91.1929   10.4896 C.ar    1  UNL1        0.0404
      4 C          63.6442   91.0499   11.9654 C.ar    1  UNL1        0.1464
      5 O          62.5179   90.2367   12.5311 O.2     1  UNL1       -0.4563
      6 C          64.7956   91.6201   12.7397 C.ar    1  UNL1        0.0537
      7 C          65.1897   91.0132   14.0536 C.ar    1  UNL1        0.0062
      8 C          66.3410   91.5834   14.8277 C.ar    1  UNL1        0.0208
      9 C          67.0982   92.7604   14.2880 C.ar    1  UNL1        0.0989
     10 N          66.7041   93.3672   12.9740 N.ar    1  UNL1       -0.2422
     11 C          65.5528   92.7970   12.1999 C.ar    1  UNL1        0.1019
     12 N          60.4043   87.5701   11.5083 N.3     1  UNL1       -0.3148
     13 C          60.3365   89.0685   11.5201 C.3     1  UNL1        0.1307
     14 H          59.4632   87.1865   11.5953 H       1  UNL1        0.1192
     15 H          60.9758   87.2494   12.2900 H       1  UNL1        0.1192
@<TRIPOS>BOND
     1    12    13    1
     2    13     1    1
     3     1     2   ar
     4     2     3   ar
     5     3     4   ar
     6     4     6    1
     7     6     7   ar
     8     7     8   ar
     9     8     9   ar
    10     9    10   ar
    11    10    11   ar
    12     4     5   ar
    13     5     1   ar
    14    11     6   ar
    15    12    14    1
    16    12    15    1
