@<TRIPOS>MOLECULE
*****
 56 60 0 0 0
SMALL
GASTEIGER

@<TRIPOS>ATOM
      1 C          62.5034   86.7455   11.8516 C.3     1  UNL1        0.0760
      2 C          61.0262   88.7901   11.2289 C.2     1  UNL1        0.2407
      3 O          59.9340   88.2713   12.1166 O.2     1  UNL1       -0.2733
      4 N          62.3109   88.0272   11.0964 N.am    1  UNL1       -0.3043
      5 H          63.0278   88.3677   10.5138 H       1  UNL1        0.1494
      6 C          60.8337   90.0718   10.4738 C.3     1  UNL1        0.1557
      7 N          59.3148   88.8015    7.0344 N.am    1  UNL1       -0.2567
      8 C          59.2416   87.5416    6.2236 C.3     1  UNL1        0.1168
      9 C          60.0377   88.8067    8.3487 C.2     1  UNL1        0.3046
     10 O          60.6874   87.5520    8.8522 O.2     1  UNL1       -0.2526
     11 N          60.1108   90.0666    9.1594 N.am    1  UNL1       -0.2821
     12 H          59.6843   90.8901    8.8289 H       1  UNL1        0.1514
     13 C          58.6650   90.0562    6.5309 C.3     1  UNL1        0.1413
     14 C          60.9762   91.7080    3.8859 C.ar    1  UNL1        0.0875
     15 N          60.7348   90.6934    4.9640 N.ar    1  UNL1       -0.2453
     16 C          59.3276   90.8640    5.4544 C.ar    1  UNL1        0.0858
     17 C          58.6992   91.9840    4.6794 C.ar    1  UNL1        0.0530
     18 S          59.7180   92.5056    3.7100 S.2     1  UNL1       -0.0705
     19 C          63.3756   90.9133    3.2849 C.3     1  UNL1        0.0069
     20 C          62.2517   91.8926    3.1184 C.3     1  UNL1        0.0465
     21 C          62.4033   93.0565    2.1845 C.3     1  UNL1        0.0069
     22 C          61.3641   91.3586   11.0329 C.3     1  UNL1        0.0764
     23 C          62.8325   91.5127   11.2974 C.ar    1  UNL1        0.0800
     24 C          63.8490   92.0565   10.3377 C.ar    1  UNL1        0.0921
     25 N          65.1870   92.0299   11.0152 N.ar    1  UNL1       -0.3061
     26 C          66.4864   92.4839   10.4189 C.3     1  UNL1        0.1321
     27 C          64.9975   91.4696   12.3937 C.ar    1  UNL1        0.1783
     28 N          63.5424   91.1499   12.5680 N.ar    1  UNL1       -0.2282
     29 C          63.4290   86.7017   13.0310 C.3     1  UNL1        0.0216
     30 C          64.1756   87.9351   13.4447 C.3     1  UNL1        0.0217
     31 C          64.2171   88.3378   14.8891 C.3     1  UNL1        0.0792
     32 N          64.5451   89.7526   15.2641 N.am    1  UNL1       -0.2720
     33 C          63.5533   90.5737   16.0336 C.2     1  UNL1        0.4019
     34 O          62.2335   89.9800   16.4281 O.2     1  UNL1       -0.2264
     35 H          65.4113   90.1423   15.0052 H       1  UNL1        0.1527
     36 O          63.8813   91.9886   16.4087 O.3     1  UNL1       -0.4291
     37 C          65.2489   92.3309   16.9210 C.3     1  UNL1        0.2447
     38 C          66.3664   92.5966   15.9563 C.ar    1  UNL1        0.0714
     39 C          66.2321   93.2350   14.6056 C.ar    1  UNL1        0.1053
     40 N          67.5971   93.3035   13.9875 N.ar    1  UNL1       -0.2350
     41 C          68.5750   92.7074   14.9562 C.ar    1  UNL1        0.1343
     42 S          67.8144   92.2705   16.1730 S.2     1  UNL1       -0.0652
     43 C          63.9305   87.3257   15.9583 C.3     1  UNL1        0.0460
     44 C          63.9064   85.8643   15.6207 C.ar    1  UNL1       -0.0205
     45 C          65.0928   85.2275   14.9598 C.ar    1  UNL1       -0.0042
     46 C          65.0687   83.7663   14.6222 C.ar    1  UNL1       -0.0003
     47 C          63.8580   82.9417   14.9456 C.ar    1  UNL1       -0.0000
     48 C          62.6716   83.5785   15.6065 C.ar    1  UNL1       -0.0003
     49 C          62.6958   85.0397   15.9440 C.ar    1  UNL1       -0.0042
     50 C          61.7701   85.5076   11.4272 C.3     1  UNL1        0.0459
     51 C          62.5262   84.2362   11.1784 C.ar    1  UNL1       -0.0205
     52 C          62.2091   83.0066   11.9767 C.ar    1  UNL1       -0.0042
     53 C          62.9652   81.7352   11.7279 C.ar    1  UNL1       -0.0003
     54 C          64.0384   81.6935   10.6808 C.ar    1  UNL1       -0.0000
     55 C          64.3555   82.9232    9.8825 C.ar    1  UNL1       -0.0003
     56 C          63.5994   84.1946   10.1313 C.ar    1  UNL1       -0.0042
@<TRIPOS>BOND
     1    19    20    1
     2    20    21    1
     3    20    14    1
     4    14    15   ar
     5    15    16   ar
     6    16    13    1
     7    13     7    1
     8     7     8    1
     9     7     9   am
    10     9    10    2
    11     9    11   am
    12    11     6    1
    13     6    22    1
    14    22    23    1
    15    23    24   ar
    16    24    25   ar
    17    25    26    1
    18    25    27   ar
    19    27    28   ar
    20     6     2    1
    21     2     3    2
    22     2     4   am
    23     4     1    1
    24     1    29    1
    25    29    30    1
    26    31    30    1
    27    31    43    1
    28    43    44    1
    29    44    45   ar
    30    45    46   ar
    31    46    47   ar
    32    47    48   ar
    33    48    49   ar
    34    31    32    1
    35    32    33   am
    36    33    34    2
    37    33    36    1
    38    36    37    1
    39    37    38    1
    40    38    39   ar
    41    39    40   ar
    42    40    41   ar
    43    41    42   ar
    44     1    50    1
    45    50    51    1
    46    51    52   ar
    47    52    53   ar
    48    53    54   ar
    49    54    55   ar
    50    55    56   ar
    51    16    17   ar
    52    17    18   ar
    53    18    14   ar
    54    28    23   ar
    55    49    44   ar
    56    42    38   ar
    57    56    51   ar
    58    11    12    1
    59     4     5    1
    60    32    35    1
@<TRIPOS>MOLECULE
*****
 56 60 0 0 0
SMALL
GASTEIGER

@<TRIPOS>ATOM
      1 C          62.3263   88.0388   11.2953 C.3     1  UNL1        0.0760
      2 C          60.6431   88.7369    9.4434 C.2     1  UNL1        0.2407
      3 O          60.1434   89.8492   10.3168 O.2     1  UNL1       -0.2733
      4 N          61.7346   87.8316    9.9326 N.am    1  UNL1       -0.3043
      5 H          62.0626   87.1016    9.3593 H       1  UNL1        0.1494
      6 C          60.0513   88.5297    8.0807 C.3     1  UNL1        0.1557
      7 N          58.5444   91.1277    5.4865 N.am    1  UNL1       -0.2567
      8 C          57.2413   91.4234    4.8049 C.3     1  UNL1        0.1168
      9 C          58.6463   89.9765    6.4428 C.2     1  UNL1        0.3046
     10 O          57.4452   89.1211    6.7175 O.2     1  UNL1       -0.2526
     11 N          59.9494   89.6808    7.1244 N.am    1  UNL1       -0.2821
     12 H          60.7377   90.2423    6.9440 H       1  UNL1        0.1514
     13 C          59.7456   91.9831    5.2118 C.3     1  UNL1        0.1413
     14 C          60.0002   93.0084    1.4769 C.ar    1  UNL1        0.0875
     15 N          59.2002   92.8162    2.7311 N.ar    1  UNL1       -0.2453
     16 C          60.1255   92.3108    3.7982 C.ar    1  UNL1        0.0858
     17 C          61.4973   92.1907    3.2034 C.ar    1  UNL1        0.0530
     18 S          61.4198   92.6218    1.7688 S.2     1  UNL1       -0.0705
     19 C          58.9845   94.9129    0.0307 C.3     1  UNL1        0.0069
     20 C          59.4730   93.5007    0.1617 C.3     1  UNL1        0.0465
     21 C          59.4344   92.5809   -1.0225 C.3     1  UNL1        0.0069
     22 C          59.5616   87.1714    7.6743 C.3     1  UNL1        0.0764
     23 C          60.5379   86.1267    7.2210 C.ar    1  UNL1        0.0800
     24 C          60.4085   85.2715    5.9955 C.ar    1  UNL1        0.0921
     25 N          61.6056   84.3700    5.9308 N.ar    1  UNL1       -0.3061
     26 C          61.8845   83.3497    4.8673 C.3     1  UNL1        0.1321
     27 C          62.4749   84.6681    7.1163 C.ar    1  UNL1        0.1783
     28 N          61.8150   85.7537    7.9137 N.ar    1  UNL1       -0.2282
     29 C          63.1004   89.2882   11.5947 C.3     1  UNL1        0.0216
     30 C          62.7405   90.1261   12.7857 C.3     1  UNL1        0.0217
     31 C          63.8097   90.8684   13.5313 C.3     1  UNL1        0.0792
     32 N          64.6212   91.9180   12.8315 N.am    1  UNL1       -0.2720
     33 C          66.0695   92.1005   13.1770 C.2     1  UNL1        0.4019
     34 O          66.7062   91.2333   14.2222 O.2     1  UNL1       -0.2264
     35 H          64.2033   92.4872   12.1455 H       1  UNL1        0.1527
     36 O          66.8810   93.1502   12.4772 O.3     1  UNL1       -0.4291
     37 C          66.2098   94.3729   11.9254 C.3     1  UNL1        0.2447
     38 C          66.6776   94.9646   10.6288 C.ar    1  UNL1        0.0714
     39 C          67.2240   94.2024    9.4581 C.ar    1  UNL1        0.1053
     40 N          67.5653   95.1891    8.3810 N.ar    1  UNL1       -0.2350
     41 C          67.2297   96.5611    8.8861 C.ar    1  UNL1        0.1343
     42 S          66.6812   96.4223   10.2753 S.2     1  UNL1       -0.0652
     43 C          64.0675   90.5609   14.9766 C.3     1  UNL1        0.0460
     44 C          63.8813   89.1642   15.4911 C.ar    1  UNL1       -0.0205
     45 C          63.0548   88.9211   16.7190 C.ar    1  UNL1       -0.0042
     46 C          62.8687   87.5245   17.2334 C.ar    1  UNL1       -0.0003
     47 C          63.5091   86.3709   16.5199 C.ar    1  UNL1       -0.0000
     48 C          64.3357   86.6139   15.2920 C.ar    1  UNL1       -0.0003
     49 C          64.5217   88.0106   14.7776 C.ar    1  UNL1       -0.0042
     50 C          62.1440   86.9965   12.3585 C.3     1  UNL1        0.0459
     51 C          62.6125   85.5917   12.1198 C.ar    1  UNL1       -0.0205
     52 C          63.0271   85.1630   10.7435 C.ar    1  UNL1       -0.0042
     53 C          63.4956   83.7582   10.5048 C.ar    1  UNL1       -0.0003
     54 C          63.5495   82.7821   11.6424 C.ar    1  UNL1       -0.0000
     55 C          63.1349   83.2107   13.0188 C.ar    1  UNL1       -0.0003
     56 C          62.6664   84.6155   13.2575 C.ar    1  UNL1       -0.0042
@<TRIPOS>BOND
     1    19    20    1
     2    20    21    1
     3    20    14    1
     4    14    15   ar
     5    15    16   ar
     6    16    13    1
     7    13     7    1
     8     7     8    1
     9     7     9   am
    10     9    10    2
    11     9    11   am
    12    11     6    1
    13     6    22    1
    14    22    23    1
    15    23    24   ar
    16    24    25   ar
    17    25    26    1
    18    25    27   ar
    19    27    28   ar
    20     6     2    1
    21     2     3    2
    22     2     4   am
    23     4     1    1
    24     1    29    1
    25    29    30    1
    26    31    30    1
    27    31    43    1
    28    43    44    1
    29    44    45   ar
    30    45    46   ar
    31    46    47   ar
    32    47    48   ar
    33    48    49   ar
    34    31    32    1
    35    32    33   am
    36    33    34    2
    37    33    36    1
    38    36    37    1
    39    37    38    1
    40    38    39   ar
    41    39    40   ar
    42    40    41   ar
    43    41    42   ar
    44     1    50    1
    45    50    51    1
    46    51    52   ar
    47    52    53   ar
    48    53    54   ar
    49    54    55   ar
    50    55    56   ar
    51    16    17   ar
    52    17    18   ar
    53    18    14   ar
    54    28    23   ar
    55    49    44   ar
    56    42    38   ar
    57    56    51   ar
    58    11    12    1
    59     4     5    1
    60    32    35    1
@<TRIPOS>MOLECULE
*****
 56 60 0 0 0
SMALL
GASTEIGER

@<TRIPOS>ATOM
      1 C          63.0726   89.5398   11.9209 C.3     1  UNL1        0.0760
      2 C          61.0392   89.3472   10.3152 C.2     1  UNL1        0.2407
      3 O          60.2097   90.1549   11.2688 O.2     1  UNL1       -0.2733
      4 N          62.4707   89.0396   10.6412 N.am    1  UNL1       -0.3043
      5 H          63.0152   88.5095   10.0153 H       1  UNL1        0.1494
      6 C          60.4373   88.8471    9.0355 C.3     1  UNL1        0.1557
      7 N          58.8896   90.5801    5.8182 N.am    1  UNL1       -0.2567
      8 C          57.6932   90.4468    4.9232 C.3     1  UNL1        0.1168
      9 C          59.0653   89.6469    6.9793 C.2     1  UNL1        0.3046
     10 O          58.0446   88.5804    7.2455 O.2     1  UNL1       -0.2526
     11 N          60.2616   89.7803    7.8743 N.am    1  UNL1       -0.2821
     12 H          60.9315   90.4802    7.6996 H       1  UNL1        0.1514
     13 C          59.9103   91.6466    5.5520 C.3     1  UNL1        0.1413
     14 C          59.9761   92.9535    1.8977 C.ar    1  UNL1        0.0875
     15 N          59.2557   92.7181    3.1922 N.ar    1  UNL1       -0.2453
     16 C          60.2123   92.0605    4.1422 C.ar    1  UNL1        0.0858
     17 C          61.5239   91.8894    3.4348 C.ar    1  UNL1        0.0530
     18 S          61.3780   92.4413    2.0477 S.2     1  UNL1       -0.0705
     19 C          59.3574   95.0837    0.5452 C.3     1  UNL1        0.0069
     20 C          59.3964   93.5894    0.6691 C.3     1  UNL1        0.0465
     21 C          58.8558   92.7308   -0.4358 C.3     1  UNL1        0.0069
     22 C          60.0111   87.4138    8.9170 C.3     1  UNL1        0.0764
     23 C          60.8748   86.4329    8.1809 C.ar    1  UNL1        0.0800
     24 C          60.4760   85.6416    6.9707 C.ar    1  UNL1        0.0921
     25 N          61.6437   84.7907    6.5676 N.ar    1  UNL1       -0.3061
     26 C          61.6837   83.8412    5.4071 C.3     1  UNL1        0.1321
     27 C          62.7642   85.0561    7.5288 C.ar    1  UNL1        0.1783
     28 N          62.2890   86.0710    8.5259 N.ar    1  UNL1       -0.2282
     29 C          63.5043   90.9716   12.0373 C.3     1  UNL1        0.0216
     30 C          64.3788   91.5795   10.9811 C.3     1  UNL1        0.0217
     31 C          65.7129   92.1561   11.3524 C.3     1  UNL1        0.0792
     32 N          66.0947   92.2940   12.7965 N.am    1  UNL1       -0.2720
     33 C          67.5244   92.1164   13.2145 C.2     1  UNL1        0.4019
     34 O          68.5721   91.8010   12.1885 O.2     1  UNL1       -0.2264
     35 H          65.4070   92.5010   13.4699 H       1  UNL1        0.1527
     36 O          67.9061   92.2542   14.6585 O.3     1  UNL1       -0.4291
     37 C          66.9366   92.8473   15.6373 C.3     1  UNL1        0.2447
     38 C          65.6208   92.1734   15.8916 C.ar    1  UNL1        0.0714
     39 C          64.5784   92.6171   16.8748 C.ar    1  UNL1        0.1053
     40 N          63.4298   91.6554   16.7982 N.ar    1  UNL1       -0.2350
     41 C          63.7622   90.6174   15.7677 C.ar    1  UNL1        0.1343
     42 S          65.1164   90.9376   15.2074 S.2     1  UNL1       -0.0652
     43 C          66.6652   92.5949   10.2797 C.3     1  UNL1        0.0460
     44 C          66.6492   94.0153    9.7977 C.ar    1  UNL1       -0.0205
     45 C          65.7714   95.0267   10.4733 C.ar    1  UNL1       -0.0042
     46 C          65.7554   96.4470    9.9913 C.ar    1  UNL1       -0.0003
     47 C          66.6173   96.8559    8.8337 C.ar    1  UNL1       -0.0000
     48 C          67.4951   95.8445    8.1581 C.ar    1  UNL1       -0.0003
     49 C          67.5110   94.4242    8.6401 C.ar    1  UNL1       -0.0042
     50 C          63.2429   88.6081   13.0841 C.3     1  UNL1        0.0459
     51 C          63.2639   87.1251   12.8603 C.ar    1  UNL1       -0.0205
     52 C          62.4691   86.5245   11.7389 C.ar    1  UNL1       -0.0042
     53 C          62.4901   85.0414   11.5151 C.ar    1  UNL1       -0.0003
     54 C          63.3059   84.1589   12.4127 C.ar    1  UNL1       -0.0000
     55 C          64.1007   84.7595   13.5341 C.ar    1  UNL1       -0.0003
     56 C          64.0797   86.2426   13.7579 C.ar    1  UNL1       -0.0042
@<TRIPOS>BOND
     1    19    20    1
     2    20    21    1
     3    20    14    1
     4    14    15   ar
     5    15    16   ar
     6    16    13    1
     7    13     7    1
     8     7     8    1
     9     7     9   am
    10     9    10    2
    11     9    11   am
    12    11     6    1
    13     6    22    1
    14    22    23    1
    15    23    24   ar
    16    24    25   ar
    17    25    26    1
    18    25    27   ar
    19    27    28   ar
    20     6     2    1
    21     2     3    2
    22     2     4   am
    23     4     1    1
    24     1    29    1
    25    29    30    1
    26    31    30    1
    27    31    43    1
    28    43    44    1
    29    44    45   ar
    30    45    46   ar
    31    46    47   ar
    32    47    48   ar
    33    48    49   ar
    34    31    32    1
    35    32    33   am
    36    33    34    2
    37    33    36    1
    38    36    37    1
    39    37    38    1
    40    38    39   ar
    41    39    40   ar
    42    40    41   ar
    43    41    42   ar
    44     1    50    1
    45    50    51    1
    46    51    52   ar
    47    52    53   ar
    48    53    54   ar
    49    54    55   ar
    50    55    56   ar
    51    16    17   ar
    52    17    18   ar
    53    18    14   ar
    54    28    23   ar
    55    49    44   ar
    56    42    38   ar
    57    56    51   ar
    58    11    12    1
    59     4     5    1
    60    32    35    1
@<TRIPOS>MOLECULE
*****
 56 60 0 0 0
SMALL
GASTEIGER

@<TRIPOS>ATOM
      1 C          63.4645   89.5307   12.7115 C.3     1  UNL1        0.0760
      2 C          61.5196   89.0476   11.0580 C.2     1  UNL1        0.2407
      3 O          60.5713   89.7816   11.9590 O.2     1  UNL1       -0.2733
      4 N          62.9663   88.9221   11.4342 N.am    1  UNL1       -0.3043
      5 H          63.5887   88.4404   10.8428 H       1  UNL1        0.1494
      6 C          61.0214   88.4391    9.7807 C.3     1  UNL1        0.1557
      7 N          59.4945   89.9814    6.4580 N.am    1  UNL1       -0.2567
      8 C          58.2860   89.8203    5.5842 C.3     1  UNL1        0.1168
      9 C          59.6537   89.1297    7.6824 C.2     1  UNL1        0.3046
     10 O          58.6043   88.1168    8.0330 O.2     1  UNL1       -0.2526
     11 N          60.8622   89.2909    8.5562 N.am    1  UNL1       -0.2821
     12 H          61.5509   89.9557    8.3261 H       1  UNL1        0.1514
     13 C          60.5438   90.9943    6.1074 C.3     1  UNL1        0.1413
     14 C          61.2064   92.4469    2.5695 C.ar    1  UNL1        0.0875
     15 N          61.6574   91.6768    3.7751 N.ar    1  UNL1       -0.2453
     16 C          60.5273   91.6562    4.7614 C.ar    1  UNL1        0.0858
     17 C          59.3780   92.4136    4.1653 C.ar    1  UNL1        0.0530
     18 S          59.7976   92.9023    2.8107 S.2     1  UNL1       -0.0705
     19 C          63.4521   93.1460    1.4659 C.3     1  UNL1        0.0069
     20 C          62.0211   92.7147    1.3388 C.3     1  UNL1        0.0465
     21 C          61.4048   92.5511   -0.0188 C.3     1  UNL1        0.0069
     22 C          60.6823   86.9789    9.7278 C.3     1  UNL1        0.0764
     23 C          61.3757   86.0831    8.7446 C.ar    1  UNL1        0.0800
     24 C          60.8287   85.6356    7.4215 C.ar    1  UNL1        0.0921
     25 N          61.8527   84.7534    6.7710 N.ar    1  UNL1       -0.3061
     26 C          61.7201   84.0861    5.4341 C.3     1  UNL1        0.1321
     27 C          63.0326   84.6557    7.6920 C.ar    1  UNL1        0.1783
     28 N          62.7377   85.4774    8.9118 N.ar    1  UNL1       -0.2282
     29 C          63.7219   91.0064   12.7888 C.3     1  UNL1        0.0216
     30 C          64.2215   91.7447   11.5826 C.3     1  UNL1        0.0217
     31 C          65.5167   92.4986   11.6479 C.3     1  UNL1        0.0792
     32 N          65.5757   93.9285   11.1986 N.am    1  UNL1       -0.2720
     33 C          65.9113   95.0104   12.1820 C.2     1  UNL1        0.4019
     34 O          66.1880   94.6623   13.6146 O.2     1  UNL1       -0.2264
     35 H          65.3941   94.1570   10.2584 H       1  UNL1        0.1527
     36 O          65.9702   96.4403   11.7328 O.3     1  UNL1       -0.4291
     37 C          66.9517   96.8549   10.6769 C.3     1  UNL1        0.2447
     38 C          67.0939   96.0419    9.4244 C.ar    1  UNL1        0.0714
     39 C          67.8499   94.7533    9.2908 C.ar    1  UNL1        0.1053
     40 N          67.7283   94.2897    7.8694 N.ar    1  UNL1       -0.2350
     41 C          66.8971   95.2919    7.1246 C.ar    1  UNL1        0.1343
     42 S          66.5050   96.3747    8.0856 S.2     1  UNL1       -0.0652
     43 C          66.7529   91.8225   12.1624 C.3     1  UNL1        0.0460
     44 C          67.2144   92.0719   13.5677 C.ar    1  UNL1       -0.0205
     45 C          68.6574   92.3776   13.8401 C.ar    1  UNL1       -0.0042
     46 C          69.1189   92.6269   15.2454 C.ar    1  UNL1       -0.0003
     47 C          68.1374   92.5705   16.3783 C.ar    1  UNL1       -0.0000
     48 C          66.6944   92.2647   16.1059 C.ar    1  UNL1       -0.0003
     49 C          66.2329   92.0154   14.7006 C.ar    1  UNL1       -0.0042
     50 C          63.7054   88.6634   13.9115 C.3     1  UNL1        0.0459
     51 C          63.8376   87.1781   13.7490 C.ar    1  UNL1       -0.0205
     52 C          63.1088   86.4770   12.6411 C.ar    1  UNL1       -0.0042
     53 C          63.2410   84.9917   12.4786 C.ar    1  UNL1       -0.0003
     54 C          64.1019   84.2075   13.4240 C.ar    1  UNL1       -0.0000
     55 C          64.8307   84.9086   14.5319 C.ar    1  UNL1       -0.0003
     56 C          64.6986   86.3939   14.6944 C.ar    1  UNL1       -0.0042
@<TRIPOS>BOND
     1    19    20    1
     2    20    21    1
     3    20    14    1
     4    14    15   ar
     5    15    16   ar
     6    16    13    1
     7    13     7    1
     8     7     8    1
     9     7     9   am
    10     9    10    2
    11     9    11   am
    12    11     6    1
    13     6    22    1
    14    22    23    1
    15    23    24   ar
    16    24    25   ar
    17    25    26    1
    18    25    27   ar
    19    27    28   ar
    20     6     2    1
    21     2     3    2
    22     2     4   am
    23     4     1    1
    24     1    29    1
    25    29    30    1
    26    31    30    1
    27    31    43    1
    28    43    44    1
    29    44    45   ar
    30    45    46   ar
    31    46    47   ar
    32    47    48   ar
    33    48    49   ar
    34    31    32    1
    35    32    33   am
    36    33    34    2
    37    33    36    1
    38    36    37    1
    39    37    38    1
    40    38    39   ar
    41    39    40   ar
    42    40    41   ar
    43    41    42   ar
    44     1    50    1
    45    50    51    1
    46    51    52   ar
    47    52    53   ar
    48    53    54   ar
    49    54    55   ar
    50    55    56   ar
    51    16    17   ar
    52    17    18   ar
    53    18    14   ar
    54    28    23   ar
    55    49    44   ar
    56    42    38   ar
    57    56    51   ar
    58    11    12    1
    59     4     5    1
    60    32    35    1
@<TRIPOS>MOLECULE
*****
 56 60 0 0 0
SMALL
GASTEIGER

@<TRIPOS>ATOM
      1 C          62.4725   85.5834   10.1927 C.3     1  UNL1        0.0760
      2 C          62.3889   87.8573   11.4466 C.2     1  UNL1        0.2407
      3 O          63.1765   87.2633   12.5765 O.2     1  UNL1       -0.2733
      4 N          62.0370   87.0174   10.2546 N.am    1  UNL1       -0.3043
      5 H          61.5201   87.4073    9.5130 H       1  UNL1        0.1494
      6 C          61.9534   89.2914   11.5085 C.3     1  UNL1        0.1557
      7 N          64.5268   92.3125   11.5138 N.am    1  UNL1       -0.2567
      8 C          65.2003   93.2301   10.5367 C.3     1  UNL1        0.1168
      9 C          63.5768   91.2607   11.0226 C.2     1  UNL1        0.3046
     10 O          63.3003   91.1265    9.5545 O.2     1  UNL1       -0.2526
     11 N          62.9034   90.3432   11.9996 N.am    1  UNL1       -0.2821
     12 H          63.0849   90.4314   12.9632 H       1  UNL1        0.1514
     13 C          64.8033   92.4468   12.9819 C.3     1  UNL1        0.1413
     14 C          68.1848   92.7700   14.8599 C.ar    1  UNL1        0.0875
     15 N          66.7140   93.0442   14.7533 N.ar    1  UNL1       -0.2453
     16 C          66.2163   92.4172   13.4848 C.ar    1  UNL1        0.0858
     17 C          67.3795   91.7554   12.8074 C.ar    1  UNL1        0.0530
     18 S          68.5962   91.9734   13.6572 S.2     1  UNL1       -0.0705
     19 C          69.7826   92.1956   16.8265 C.3     1  UNL1        0.0069
     20 C          69.0861   93.2142   15.9736 C.3     1  UNL1        0.0465
     21 C          69.2908   94.6771   16.2345 C.3     1  UNL1        0.0069
     22 C          60.5679   89.6736   11.0793 C.3     1  UNL1        0.0764
     23 C          60.0619   89.2649    9.7276 C.ar    1  UNL1        0.0800
     24 C          60.0978   90.1012    8.4829 C.ar    1  UNL1        0.0921
     25 N          59.4892   89.3014    7.3694 N.ar    1  UNL1       -0.3061
     26 C          59.3221   89.7530    5.9488 C.3     1  UNL1        0.1321
     27 C          59.0772   87.9708    7.9259 C.ar    1  UNL1        0.1783
     28 N          59.4311   87.9483    9.3834 N.ar    1  UNL1       -0.2282
     29 C          62.1104   84.6410   11.3021 C.3     1  UNL1        0.0216
     30 C          63.1545   84.2057   12.2871 C.3     1  UNL1        0.0217
     31 C          62.7465   83.5341   13.5649 C.3     1  UNL1        0.0792
     32 N          62.0645   84.3237   14.6426 N.am    1  UNL1       -0.2720
     33 C          62.8680   84.9100   15.7655 C.2     1  UNL1        0.4019
     34 O          64.3534   84.7066   15.8106 O.2     1  UNL1       -0.2264
     35 H          61.0895   84.4572   14.6129 H       1  UNL1        0.1527
     36 O          62.1860   85.6995   16.8432 O.3     1  UNL1       -0.4291
     37 C          62.8637   86.8983   17.4377 C.3     1  UNL1        0.2447
     38 C          63.2978   88.0298   16.5537 C.ar    1  UNL1        0.0714
     39 C          64.1570   87.9129   15.3298 C.ar    1  UNL1        0.1053
     40 N          64.3390   89.2876   14.7581 N.ar    1  UNL1       -0.2350
     41 C          63.5923   90.2543   15.6287 C.ar    1  UNL1        0.1343
     42 S          62.9488   89.4769   16.7385 S.2     1  UNL1       -0.0652
     43 C          63.0205   82.0730   13.7649 C.3     1  UNL1        0.0460
     44 C          62.9623   81.1323   12.5979 C.ar    1  UNL1       -0.0205
     45 C          62.5471   79.7059   12.8045 C.ar    1  UNL1       -0.0042
     46 C          62.4888   78.7653   11.6375 C.ar    1  UNL1       -0.0003
     47 C          62.8458   79.2512   10.2640 C.ar    1  UNL1       -0.0000
     48 C          63.2611   80.6776   10.0575 C.ar    1  UNL1       -0.0003
     49 C          63.3193   81.6182   11.2244 C.ar    1  UNL1       -0.0042
     50 C          63.2703   85.0917    9.0214 C.3     1  UNL1        0.0459
     51 C          62.5959   84.8482    7.7038 C.ar    1  UNL1       -0.0205
     52 C          63.4088   84.4524    6.5070 C.ar    1  UNL1       -0.0042
     53 C          62.7344   84.2089    5.1895 C.ar    1  UNL1       -0.0003
     54 C          61.2471   84.3612    5.0688 C.ar    1  UNL1       -0.0000
     55 C          60.4341   84.7571    6.2656 C.ar    1  UNL1       -0.0003
     56 C          61.1085   85.0006    7.5832 C.ar    1  UNL1       -0.0042
@<TRIPOS>BOND
     1    19    20    1
     2    20    21    1
     3    20    14    1
     4    14    15   ar
     5    15    16   ar
     6    16    13    1
     7    13     7    1
     8     7     8    1
     9     7     9   am
    10     9    10    2
    11     9    11   am
    12    11     6    1
    13     6    22    1
    14    22    23    1
    15    23    24   ar
    16    24    25   ar
    17    25    26    1
    18    25    27   ar
    19    27    28   ar
    20     6     2    1
    21     2     3    2
    22     2     4   am
    23     4     1    1
    24     1    29    1
    25    29    30    1
    26    31    30    1
    27    31    43    1
    28    43    44    1
    29    44    45   ar
    30    45    46   ar
    31    46    47   ar
    32    47    48   ar
    33    48    49   ar
    34    31    32    1
    35    32    33   am
    36    33    34    2
    37    33    36    1
    38    36    37    1
    39    37    38    1
    40    38    39   ar
    41    39    40   ar
    42    40    41   ar
    43    41    42   ar
    44     1    50    1
    45    50    51    1
    46    51    52   ar
    47    52    53   ar
    48    53    54   ar
    49    54    55   ar
    50    55    56   ar
    51    16    17   ar
    52    17    18   ar
    53    18    14   ar
    54    28    23   ar
    55    49    44   ar
    56    42    38   ar
    57    56    51   ar
    58    11    12    1
    59     4     5    1
    60    32    35    1
@<TRIPOS>MOLECULE
*****
 56 60 0 0 0
SMALL
GASTEIGER

@<TRIPOS>ATOM
      1 C          62.1636   89.9732   10.7514 C.3     1  UNL1        0.0760
      2 C          60.2571   89.7279    9.0035 C.2     1  UNL1        0.2407
      3 O          59.3213   90.4563    9.9220 O.2     1  UNL1       -0.2733
      4 N          61.6783   89.4862    9.4183 N.am    1  UNL1       -0.3043
      5 H          62.2925   89.0081    8.8155 H       1  UNL1        0.1494
      6 C          59.7718   89.2409    7.6704 C.3     1  UNL1        0.1557
      7 N          58.5830   91.5169    4.6443 N.am    1  UNL1       -0.2567
      8 C          57.3066   91.9736    4.0021 C.3     1  UNL1        0.1168
      9 C          58.5392   90.6073    5.8362 C.2     1  UNL1        0.3046
     10 O          57.2191   90.1545    6.3860 O.2     1  UNL1       -0.2526
     11 N          59.8155   90.1506    6.4784 N.am    1  UNL1       -0.2821
     12 H          60.6819   90.4478    6.1175 H       1  UNL1        0.1514
     13 C          59.9031   91.9697    4.0945 C.3     1  UNL1        0.1413
     14 C          59.8015   93.6459    0.5951 C.ar    1  UNL1        0.0875
     15 N          59.6267   92.4466    1.4789 N.ar    1  UNL1       -0.2453
     16 C          59.9476   92.8567    2.8856 C.ar    1  UNL1        0.0858
     17 C          60.3207   94.3095    2.8713 C.ar    1  UNL1        0.0530
     18 S          60.2304   94.7972    1.4557 S.2     1  UNL1       -0.0705
     19 C          60.2648   94.7367   -1.7169 C.3     1  UNL1        0.0069
     20 C          59.5854   93.6867   -0.8887 C.3     1  UNL1        0.0465
     21 C          58.6899   92.6775   -1.5441 C.3     1  UNL1        0.0069
     22 C          59.2427   87.8445    7.5291 C.3     1  UNL1        0.0764
     23 C          60.1928   86.6856    7.4638 C.ar    1  UNL1        0.0800
     24 C          61.5244   86.5974    8.1485 C.ar    1  UNL1        0.0921
     25 N          62.1327   85.2687    7.8101 N.ar    1  UNL1       -0.3061
     26 C          63.4631   84.7620    8.2827 C.3     1  UNL1        0.1321
     27 C          61.1768   84.5355    6.9163 C.ar    1  UNL1        0.1783
     28 N          59.9779   85.4112    6.7023 N.ar    1  UNL1       -0.2282
     29 C          62.9103   91.2703   10.8497 C.3     1  UNL1        0.0216
     30 C          64.3311   91.2832   11.3303 C.3     1  UNL1        0.0217
     31 C          64.6639   91.8662   12.6718 C.3     1  UNL1        0.0792
     32 N          63.7470   91.6383   13.8369 N.am    1  UNL1       -0.2720
     33 C          63.8985   90.4076   14.6810 C.2     1  UNL1        0.4019
     34 O          64.9669   89.4049   14.3601 O.2     1  UNL1       -0.2264
     35 H          63.0458   92.2964   14.0475 H       1  UNL1        0.1527
     36 O          62.9816   90.1797   15.8461 O.3     1  UNL1       -0.4291
     37 C          63.3758   89.2271   16.9356 C.3     1  UNL1        0.2447
     38 C          63.0095   87.7762   16.8320 C.ar    1  UNL1        0.0714
     39 C          61.7306   87.1535   17.3082 C.ar    1  UNL1        0.1053
     40 N          61.7885   85.6857   17.0046 N.ar    1  UNL1       -0.2350
     41 C          63.1031   85.4012   16.3407 C.ar    1  UNL1        0.1343
     42 S          63.8577   86.6932   16.2340 S.2     1  UNL1       -0.0652
     43 C          65.9135   92.6769   12.8482 C.3     1  UNL1        0.0460
     44 C          66.5698   93.3119   11.6582 C.ar    1  UNL1       -0.0205
     45 C          66.2763   94.7421   11.3141 C.ar    1  UNL1       -0.0042
     46 C          66.9326   95.3770   10.1241 C.ar    1  UNL1       -0.0003
     47 C          67.8824   94.5817    9.2782 C.ar    1  UNL1       -0.0000
     48 C          68.1759   93.1516    9.6223 C.ar    1  UNL1       -0.0003
     49 C          67.5196   92.5167   10.8123 C.ar    1  UNL1       -0.0042
     50 C          61.9022   89.1628   11.9864 C.3     1  UNL1        0.0459
     51 C          62.1776   87.6883   11.9882 C.ar    1  UNL1       -0.0205
     52 C          61.2454   86.7504   11.2802 C.ar    1  UNL1       -0.0042
     53 C          61.5208   85.2759   11.2820 C.ar    1  UNL1       -0.0003
     54 C          62.7285   84.7393   11.9916 C.ar    1  UNL1       -0.0000
     55 C          63.6608   85.6773   12.6996 C.ar    1  UNL1       -0.0003
     56 C          63.3854   87.1518   12.6979 C.ar    1  UNL1       -0.0042
@<TRIPOS>BOND
     1    19    20    1
     2    20    21    1
     3    20    14    1
     4    14    15   ar
     5    15    16   ar
     6    16    13    1
     7    13     7    1
     8     7     8    1
     9     7     9   am
    10     9    10    2
    11     9    11   am
    12    11     6    1
    13     6    22    1
    14    22    23    1
    15    23    24   ar
    16    24    25   ar
    17    25    26    1
    18    25    27   ar
    19    27    28   ar
    20     6     2    1
    21     2     3    2
    22     2     4   am
    23     4     1    1
    24     1    29    1
    25    29    30    1
    26    31    30    1
    27    31    43    1
    28    43    44    1
    29    44    45   ar
    30    45    46   ar
    31    46    47   ar
    32    47    48   ar
    33    48    49   ar
    34    31    32    1
    35    32    33   am
    36    33    34    2
    37    33    36    1
    38    36    37    1
    39    37    38    1
    40    38    39   ar
    41    39    40   ar
    42    40    41   ar
    43    41    42   ar
    44     1    50    1
    45    50    51    1
    46    51    52   ar
    47    52    53   ar
    48    53    54   ar
    49    54    55   ar
    50    55    56   ar
    51    16    17   ar
    52    17    18   ar
    53    18    14   ar
    54    28    23   ar
    55    49    44   ar
    56    42    38   ar
    57    56    51   ar
    58    11    12    1
    59     4     5    1
    60    32    35    1
@<TRIPOS>MOLECULE
*****
 56 60 0 0 0
SMALL
GASTEIGER

@<TRIPOS>ATOM
      1 C          62.3170   90.0606   11.1658 C.3     1  UNL1        0.0760
      2 C          60.4511   89.7894    9.3783 C.2     1  UNL1        0.2407
      3 O          59.4889   90.5129   10.2730 O.2     1  UNL1       -0.2733
      4 N          61.8652   89.5632    9.8247 N.am    1  UNL1       -0.3043
      5 H          62.4968   89.0883    9.2375 H       1  UNL1        0.1494
      6 C          59.9994   89.2920    8.0372 C.3     1  UNL1        0.1557
      7 N          59.0404   91.4394    4.8405 N.am    1  UNL1       -0.2567
      8 C          57.8196   91.8299    4.0612 C.3     1  UNL1        0.1168
      9 C          58.9095   90.5609    6.0492 C.2     1  UNL1        0.3046
     10 O          57.5577   90.0728    6.4787 O.2     1  UNL1       -0.2526
     11 N          60.1303   90.1706    6.8284 N.am    1  UNL1       -0.2821
     12 H          61.0175   90.4910    6.5465 H       1  UNL1        0.1514
     13 C          60.3922   91.9276    4.4110 C.3     1  UNL1        0.1413
     14 C          60.1534   93.8333    1.0380 C.ar    1  UNL1        0.0875
     15 N          59.5636   93.4196    2.3537 N.ar    1  UNL1       -0.2453
     16 C          60.5677   92.5591    3.0617 C.ar    1  UNL1        0.0858
     17 C          61.7780   92.4409    2.1836 C.ar    1  UNL1        0.0530
     18 S          61.5220   93.2284    0.9329 S.2     1  UNL1       -0.0705
     19 C          58.1773   94.2867   -0.5867 C.3     1  UNL1        0.0069
     20 C          59.4909   94.6998    0.0083 C.3     1  UNL1        0.0465
     21 C          60.1419   95.9793   -0.4264 C.3     1  UNL1        0.0069
     22 C          59.4167   87.9162    7.9049 C.3     1  UNL1        0.0764
     23 C          60.3199   86.7350    7.7074 C.ar    1  UNL1        0.0800
     24 C          61.6309   86.5023    8.3982 C.ar    1  UNL1        0.0921
     25 N          62.1919   85.2026    7.9022 N.ar    1  UNL1       -0.3061
     26 C          63.4894   84.5824    8.3286 C.3     1  UNL1        0.1321
     27 C          61.2277   84.6320    6.9048 C.ar    1  UNL1        0.1783
     28 N          60.0707   85.5791    6.7844 N.ar    1  UNL1       -0.2282
     29 C          62.9960   91.3930   11.2818 C.3     1  UNL1        0.0216
     30 C          64.4278   91.5442   10.8610 C.3     1  UNL1        0.0217
     31 C          65.3779   92.3400   11.7062 C.3     1  UNL1        0.0792
     32 N          65.0003   92.7152   13.1085 N.am    1  UNL1       -0.2720
     33 C          64.9242   91.6605   14.1725 C.2     1  UNL1        0.4019
     34 O          65.2257   90.2306   13.8340 O.2     1  UNL1       -0.2264
     35 H          64.8024   93.6536   13.3307 H       1  UNL1        0.1527
     36 O          64.5465   92.0357   15.5748 O.3     1  UNL1       -0.4291
     37 C          65.5961   92.5224   16.5295 C.3     1  UNL1        0.2447
     38 C          66.9962   92.7610   16.0469 C.ar    1  UNL1        0.0714
     39 C          67.4264   93.8243   15.0803 C.ar    1  UNL1        0.1053
     40 N          68.9080   93.6988   14.8822 N.ar    1  UNL1       -0.2350
     41 C          69.3934   92.5578   15.7264 C.ar    1  UNL1        0.1343
     42 S          68.2119   91.9783   16.4462 S.2     1  UNL1       -0.0652
     43 C          66.7055   92.7605   11.1490 C.3     1  UNL1        0.0460
     44 C          66.8429   94.0836   10.4557 C.ar    1  UNL1       -0.0205
     45 C          66.4174   95.3425   11.1514 C.ar    1  UNL1       -0.0042
     46 C          66.5547   96.6656   10.4581 C.ar    1  UNL1       -0.0003
     47 C          67.1176   96.7297    9.0692 C.ar    1  UNL1       -0.0000
     48 C          67.5432   95.4708    8.3736 C.ar    1  UNL1       -0.0003
     49 C          67.4058   94.1477    9.0668 C.ar    1  UNL1       -0.0042
     50 C          62.0897   89.2254   12.3910 C.3     1  UNL1        0.0459
     51 C          62.4281   87.7642   12.3759 C.ar    1  UNL1       -0.0205
     52 C          61.6459   86.8221   11.5095 C.ar    1  UNL1       -0.0042
     53 C          61.9842   85.3608   11.4945 C.ar    1  UNL1       -0.0003
     54 C          63.1048   84.8416   12.3457 C.ar    1  UNL1       -0.0000
     55 C          63.8871   85.7837   13.2122 C.ar    1  UNL1       -0.0003
     56 C          63.5487   87.2450   13.2272 C.ar    1  UNL1       -0.0042
@<TRIPOS>BOND
     1    19    20    1
     2    20    21    1
     3    20    14    1
     4    14    15   ar
     5    15    16   ar
     6    16    13    1
     7    13     7    1
     8     7     8    1
     9     7     9   am
    10     9    10    2
    11     9    11   am
    12    11     6    1
    13     6    22    1
    14    22    23    1
    15    23    24   ar
    16    24    25   ar
    17    25    26    1
    18    25    27   ar
    19    27    28   ar
    20     6     2    1
    21     2     3    2
    22     2     4   am
    23     4     1    1
    24     1    29    1
    25    29    30    1
    26    31    30    1
    27    31    43    1
    28    43    44    1
    29    44    45   ar
    30    45    46   ar
    31    46    47   ar
    32    47    48   ar
    33    48    49   ar
    34    31    32    1
    35    32    33   am
    36    33    34    2
    37    33    36    1
    38    36    37    1
    39    37    38    1
    40    38    39   ar
    41    39    40   ar
    42    40    41   ar
    43    41    42   ar
    44     1    50    1
    45    50    51    1
    46    51    52   ar
    47    52    53   ar
    48    53    54   ar
    49    54    55   ar
    50    55    56   ar
    51    16    17   ar
    52    17    18   ar
    53    18    14   ar
    54    28    23   ar
    55    49    44   ar
    56    42    38   ar
    57    56    51   ar
    58    11    12    1
    59     4     5    1
    60    32    35    1
@<TRIPOS>MOLECULE
*****
 56 60 0 0 0
SMALL
GASTEIGER

@<TRIPOS>ATOM
      1 C          63.4177   85.6828   12.5108 C.3     1  UNL1        0.0760
      2 C          64.3483   87.4601   14.1617 C.2     1  UNL1        0.2407
      3 O          65.2715   86.4330   14.7471 O.2     1  UNL1       -0.2733
      4 N          63.4214   87.0850   13.0435 N.am    1  UNL1       -0.3043
      5 H          62.8155   87.7592   12.6593 H       1  UNL1        0.1494
      6 C          64.3520   88.8623   14.6944 C.3     1  UNL1        0.1557
      7 N          66.3755   92.2412   14.2064 N.am    1  UNL1       -0.2567
      8 C          66.4988   93.5918   14.8475 C.3     1  UNL1        0.1168
      9 C          65.4254   91.2271   14.7709 C.2     1  UNL1        0.3046
     10 O          64.5986   91.5634   15.9765 O.2     1  UNL1       -0.2526
     11 N          65.3021   89.8766   14.1299 N.am    1  UNL1       -0.2821
     12 H          65.8448   89.6559   13.3387 H       1  UNL1        0.1514
     13 C          67.2023   91.9049   13.0009 C.3     1  UNL1        0.1413
     14 C          66.8037   94.6954   10.3326 C.ar    1  UNL1        0.0875
     15 N          66.7007   94.2129   11.7490 N.ar    1  UNL1       -0.2453
     16 C          67.1455   92.7808   11.7844 C.ar    1  UNL1        0.0858
     17 C          67.5235   92.3782   10.3898 C.ar    1  UNL1        0.0530
     18 S          67.3123   93.5615    9.4925 S.2     1  UNL1       -0.0705
     19 C          67.2367   96.6817    8.7147 C.3     1  UNL1        0.0069
     20 C          66.4588   96.0704    9.8422 C.3     1  UNL1        0.0465
     21 C          65.3361   96.8342   10.4794 C.3     1  UNL1        0.0069
     22 C          63.4056   89.2503   15.7916 C.3     1  UNL1        0.0764
     23 C          63.0586   88.2635   16.8666 C.ar    1  UNL1        0.0800
     24 C          63.0793   88.5249   18.3435 C.ar    1  UNL1        0.0921
     25 N          62.6635   87.2649   19.0432 N.ar    1  UNL1       -0.3061
     26 C          62.5460   87.0780   20.5268 C.3     1  UNL1        0.1321
     27 C          62.3857   86.2248   17.9987 C.ar    1  UNL1        0.1783
     28 N          62.6299   86.8419   16.6535 N.ar    1  UNL1       -0.2282
     29 C          62.8689   85.4014   11.1436 C.3     1  UNL1        0.0216
     30 C          61.4086   85.6023   10.8657 C.3     1  UNL1        0.0217
     31 C          60.9191   86.9202   10.3425 C.3     1  UNL1        0.0792
     32 N          60.6163   87.0816    8.8823 N.am    1  UNL1       -0.2720
     33 C          59.8393   88.2726    8.4046 C.2     1  UNL1        0.4019
     34 O          59.3652   89.3020    9.3872 O.2     1  UNL1       -0.2264
     35 H          60.9275   86.4060    8.2373 H       1  UNL1        0.1527
     36 O          59.5366   88.4341    6.9444 O.3     1  UNL1       -0.4291
     37 C          58.4800   89.4016    6.5000 C.3     1  UNL1        0.2447
     38 C          58.8392   90.5386    5.5900 C.ar    1  UNL1        0.0714
     39 C          57.8768   91.5001    4.9581 C.ar    1  UNL1        0.1053
     40 N          58.6666   92.4695    4.1296 N.ar    1  UNL1       -0.2350
     41 C          60.1173   92.1071    4.2494 C.ar    1  UNL1        0.1343
     42 S          60.2239   90.9138    5.1520 S.2     1  UNL1       -0.0652
     43 C          60.7324   88.0765   11.2795 C.3     1  UNL1        0.0460
     44 C          61.7223   89.2035   11.2867 C.ar    1  UNL1       -0.0205
     45 C          62.5873   89.4496   10.0862 C.ar    1  UNL1       -0.0042
     46 C          63.5771   90.5766   10.0935 C.ar    1  UNL1       -0.0003
     47 C          63.7021   91.4573   11.3012 C.ar    1  UNL1       -0.0000
     48 C          62.8372   91.2111   12.5017 C.ar    1  UNL1       -0.0003
     49 C          61.8473   90.0842   12.4945 C.ar    1  UNL1       -0.0042
     50 C          63.9630   84.5620   13.3455 C.3     1  UNL1        0.0459
     51 C          63.2877   83.2226   13.3359 C.ar    1  UNL1       -0.0205
     52 C          62.2528   82.8971   14.3717 C.ar    1  UNL1       -0.0042
     53 C          61.5775   81.5577   14.3622 C.ar    1  UNL1       -0.0003
     54 C          61.9372   80.5439   13.3168 C.ar    1  UNL1       -0.0000
     55 C          62.9721   80.8694   12.2809 C.ar    1  UNL1       -0.0003
     56 C          63.6474   82.2088   12.2905 C.ar    1  UNL1       -0.0042
@<TRIPOS>BOND
     1    19    20    1
     2    20    21    1
     3    20    14    1
     4    14    15   ar
     5    15    16   ar
     6    16    13    1
     7    13     7    1
     8     7     8    1
     9     7     9   am
    10     9    10    2
    11     9    11   am
    12    11     6    1
    13     6    22    1
    14    22    23    1
    15    23    24   ar
    16    24    25   ar
    17    25    26    1
    18    25    27   ar
    19    27    28   ar
    20     6     2    1
    21     2     3    2
    22     2     4   am
    23     4     1    1
    24     1    29    1
    25    29    30    1
    26    31    30    1
    27    31    43    1
    28    43    44    1
    29    44    45   ar
    30    45    46   ar
    31    46    47   ar
    32    47    48   ar
    33    48    49   ar
    34    31    32    1
    35    32    33   am
    36    33    34    2
    37    33    36    1
    38    36    37    1
    39    37    38    1
    40    38    39   ar
    41    39    40   ar
    42    40    41   ar
    43    41    42   ar
    44     1    50    1
    45    50    51    1
    46    51    52   ar
    47    52    53   ar
    48    53    54   ar
    49    54    55   ar
    50    55    56   ar
    51    16    17   ar
    52    17    18   ar
    53    18    14   ar
    54    28    23   ar
    55    49    44   ar
    56    42    38   ar
    57    56    51   ar
    58    11    12    1
    59     4     5    1
    60    32    35    1
@<TRIPOS>MOLECULE
*****
 56 60 0 0 0
SMALL
GASTEIGER

@<TRIPOS>ATOM
      1 C          62.7006   86.0191   11.4611 C.3     1  UNL1        0.0760
      2 C          61.5735   88.3279   11.0753 C.2     1  UNL1        0.2407
      3 O          60.3606   87.8610   11.8243 O.2     1  UNL1       -0.2733
      4 N          62.7435   87.4069   10.8937 N.am    1  UNL1       -0.3043
      5 H          63.5395   87.7134   10.4022 H       1  UNL1        0.1494
      6 C          61.6164   89.7158   10.5079 C.3     1  UNL1        0.1557
      7 N          59.9106   89.7029    6.9246 N.am    1  UNL1       -0.2567
      8 C          58.6323   89.2567    6.2788 C.3     1  UNL1        0.1168
      9 C          60.1243   89.4862    8.3934 C.2     1  UNL1        0.3046
     10 O          59.0599   88.8232    9.2164 O.2     1  UNL1       -0.2526
     11 N          61.4025   89.9325    9.0391 N.am    1  UNL1       -0.2821
     12 H          62.1012   90.3676    8.4989 H       1  UNL1        0.1514
     13 C          60.9750   90.3659    6.1016 C.3     1  UNL1        0.1413
     14 C          60.6828   92.4752    2.8564 C.ar    1  UNL1        0.0875
     15 N          61.4659   91.5820    3.7723 N.ar    1  UNL1       -0.2453
     16 C          60.5926   91.2377    4.9423 C.ar    1  UNL1        0.0858
     17 C          59.2698   91.9181    4.7495 C.ar    1  UNL1        0.0530
     18 S          59.3255   92.6829    3.4603 S.2     1  UNL1       -0.0705
     19 C          60.7827   92.4244    0.2607 C.3     1  UNL1        0.0069
     20 C          61.1712   93.0583    1.5635 C.3     1  UNL1        0.0465
     21 C          62.0480   94.2753    1.5735 C.3     1  UNL1        0.0069
     22 C          61.8730   90.8870   11.4093 C.3     1  UNL1        0.0764
     23 C          63.2593   91.4456   11.5367 C.ar    1  UNL1        0.0800
     24 C          64.1570   91.8439   10.4030 C.ar    1  UNL1        0.0921
     25 N          65.4438   92.3486   10.9859 N.ar    1  UNL1       -0.3061
     26 C          66.6255   92.8513   10.2108 C.3     1  UNL1        0.1321
     27 C          65.3412   92.2622   12.4799 C.ar    1  UNL1        0.1783
     28 N          63.9911   91.7041   12.8203 N.ar    1  UNL1       -0.2282
     29 C          62.9480   85.7989   12.9241 C.3     1  UNL1        0.0216
     30 C          62.4601   84.5449   13.5868 C.3     1  UNL1        0.0217
     31 C          63.3117   83.8592   14.6139 C.3     1  UNL1        0.0792
     32 N          63.5717   84.5202   15.9350 N.am    1  UNL1       -0.2720
     33 C          62.4571   85.2182   16.6567 C.2     1  UNL1        0.4019
     34 O          61.0827   85.2551   16.0571 O.2     1  UNL1       -0.2264
     35 H          64.4738   84.4960   16.3285 H       1  UNL1        0.1527
     36 O          62.7171   85.8792   17.9778 O.3     1  UNL1       -0.4291
     37 C          62.7657   87.3755   18.0711 C.3     1  UNL1        0.2447
     38 C          63.1973   88.1873   16.8859 C.ar    1  UNL1        0.0714
     39 C          63.9096   87.6667   15.6729 C.ar    1  UNL1        0.1053
     40 N          64.1449   88.8198   14.7428 N.ar    1  UNL1       -0.2350
     41 C          63.5779   90.0531   15.3811 C.ar    1  UNL1        0.1343
     42 S          62.9922   89.6622   16.7056 S.2     1  UNL1       -0.0652
     43 C          63.9032   82.5125   14.3197 C.3     1  UNL1        0.0460
     44 C          63.6805   81.8715   12.9820 C.ar    1  UNL1       -0.0205
     45 C          62.8411   80.6330   12.8742 C.ar    1  UNL1       -0.0042
     46 C          62.6184   79.9921   11.5365 C.ar    1  UNL1       -0.0003
     47 C          63.2351   80.5895   10.3066 C.ar    1  UNL1       -0.0000
     48 C          64.0745   81.8279   10.4143 C.ar    1  UNL1       -0.0003
     49 C          64.2972   82.4689   11.7520 C.ar    1  UNL1       -0.0042
     50 C          62.4103   84.8513   10.5655 C.3     1  UNL1        0.0459
     51 C          61.9682   85.0827    9.1509 C.ar    1  UNL1       -0.0205
     52 C          62.8334   84.6321    8.0115 C.ar    1  UNL1       -0.0042
     53 C          62.3914   84.8636    6.5970 C.ar    1  UNL1       -0.0003
     54 C          61.0841   85.5457    6.3218 C.ar    1  UNL1       -0.0000
     55 C          60.2188   85.9963    7.4612 C.ar    1  UNL1       -0.0003
     56 C          60.6609   85.7649    8.8758 C.ar    1  UNL1       -0.0042
@<TRIPOS>BOND
     1    19    20    1
     2    20    21    1
     3    20    14    1
     4    14    15   ar
     5    15    16   ar
     6    16    13    1
     7    13     7    1
     8     7     8    1
     9     7     9   am
    10     9    10    2
    11     9    11   am
    12    11     6    1
    13     6    22    1
    14    22    23    1
    15    23    24   ar
    16    24    25   ar
    17    25    26    1
    18    25    27   ar
    19    27    28   ar
    20     6     2    1
    21     2     3    2
    22     2     4   am
    23     4     1    1
    24     1    29    1
    25    29    30    1
    26    31    30    1
    27    31    43    1
    28    43    44    1
    29    44    45   ar
    30    45    46   ar
    31    46    47   ar
    32    47    48   ar
    33    48    49   ar
    34    31    32    1
    35    32    33   am
    36    33    34    2
    37    33    36    1
    38    36    37    1
    39    37    38    1
    40    38    39   ar
    41    39    40   ar
    42    40    41   ar
    43    41    42   ar
    44     1    50    1
    45    50    51    1
    46    51    52   ar
    47    52    53   ar
    48    53    54   ar
    49    54    55   ar
    50    55    56   ar
    51    16    17   ar
    52    17    18   ar
    53    18    14   ar
    54    28    23   ar
    55    49    44   ar
    56    42    38   ar
    57    56    51   ar
    58    11    12    1
    59     4     5    1
    60    32    35    1
