@<TRIPOS>MOLECULE
*****
 30 34 0 0 0
SMALL
GASTEIGER

@<TRIPOS>ATOM
      1 O          58.5826   92.4518    4.2007 O.2     1  UNL1       -0.2526
      2 C          60.0081   92.0069    4.0592 C.2     1  UNL1        0.3039
      3 N          60.5299   90.8816    4.9027 N.am    1  UNL1       -0.2901
      4 N          60.9119   92.6874    3.0742 N.am    1  UNL1       -0.2642
      5 C          60.3901   93.8127    2.2307 C.3     1  UNL1        0.0954
      6 C          61.2938   94.4932    1.2457 C.3     1  UNL1        0.0309
      7 C          62.7194   94.0483    1.1042 C.3     1  UNL1        0.0827
      8 C          63.2411   92.9230    1.9477 C.3     1  UNL1        0.0309
      9 C          62.3374   92.2425    2.9327 C.3     1  UNL1        0.0954
     10 H          61.4655   90.5896    4.8098 H       1  UNL1        0.1509
     11 C          63.6231   94.7288    0.1192 C.ar    1  UNL1        0.2362
     12 N          63.5983   94.5498   -1.3698 N.ar    1  UNL1       -0.1894
     13 C          64.6702   95.4181   -1.9590 C.ar    1  UNL1        0.2226
     14 N          65.3574   96.1338   -0.8341 N.ar    1  UNL1       -0.0544
     15 O          64.7103   95.7077    0.4503 O.2     1  UNL1       -0.3370
     16 C          64.9974   95.5479   -3.4171 C.ar    1  UNL1        0.1394
     17 C          64.5284   94.5040   -4.3868 C.ar    1  UNL1        0.1212
     18 N          64.8555   94.6337   -5.8450 N.ar    1  UNL1       -0.2390
     19 C          65.6516   95.8075   -6.3334 C.ar    1  UNL1        0.1195
     20 C          66.1206   96.8514   -5.3637 C.ar    1  UNL1        0.1196
     21 N          65.7935   96.7216   -3.9055 N.ar    1  UNL1       -0.2374
     22 C          59.6262   90.2011    5.8877 C.3     1  UNL1        0.0774
     23 C          58.2452   89.8862    6.3812 C.3     1  UNL1        0.0259
     24 C          59.4419   89.3375    7.1001 C.3     1  UNL1        0.0420
     25 C          60.0264   88.5219    8.2152 C.ar    1  UNL1       -0.0208
     26 C          60.1221   87.0308    8.0834 C.ar    1  UNL1       -0.0042
     27 C          60.7066   86.2154    9.1984 C.ar    1  UNL1       -0.0003
     28 C          61.1955   86.8911   10.4452 C.ar    1  UNL1       -0.0000
     29 C          61.0998   88.3822   10.5770 C.ar    1  UNL1       -0.0003
     30 C          60.5153   89.1976    9.4620 C.ar    1  UNL1       -0.0042
@<TRIPOS>BOND
     1     1     2    2
     2     2     3   am
     3     3    22    1
     4    22    23    1
     5    23    24    1
     6    24    25    1
     7    25    26   ar
     8    26    27   ar
     9    27    28   ar
    10    28    29   ar
    11    29    30   ar
    12     2     4   am
    13     4     5    1
    14     5     6    1
    15     6     7    1
    16     7    11    1
    17    11    12   ar
    18    12    13   ar
    19    13    16    1
    20    16    17   ar
    21    17    18   ar
    22    18    19   ar
    23    19    20   ar
    24    20    21   ar
    25    13    14   ar
    26    14    15   ar
    27     7     8    1
    28     8     9    1
    29    24    22    1
    30    30    25   ar
    31     9     4    1
    32    15    11   ar
    33    21    16   ar
    34     3    10    1
@<TRIPOS>MOLECULE
*****
 30 34 0 0 0
SMALL
GASTEIGER

@<TRIPOS>ATOM
      1 O          61.2590   85.1625   10.3476 O.2     1  UNL1       -0.2526
      2 C          61.5169   86.6392   10.4006 C.2     1  UNL1        0.3039
      3 N          62.3547   87.2151   11.5034 N.am    1  UNL1       -0.2901
      4 N          60.9371   87.5400    9.3506 N.am    1  UNL1       -0.2642
      5 C          60.0992   86.9640    8.2477 C.3     1  UNL1        0.0954
      6 C          59.5193   87.8647    7.1978 C.3     1  UNL1        0.0309
      7 C          59.7773   89.3415    7.2507 C.3     1  UNL1        0.0827
      8 C          60.6151   89.9174    8.3536 C.3     1  UNL1        0.0309
      9 C          61.1950   89.0166    9.4035 C.3     1  UNL1        0.0954
     10 H          62.5241   88.1844   11.5382 H       1  UNL1        0.1509
     11 C          59.1975   90.2422    6.2007 C.ar    1  UNL1        0.2362
     12 N          59.9756   91.0590    5.2121 N.ar    1  UNL1       -0.1894
     13 C          58.9967   91.8059    4.3554 C.ar    1  UNL1        0.2226
     14 N          57.6136   91.4508    4.8146 N.ar    1  UNL1       -0.0544
     15 O          57.7377   90.4843    5.9550 O.2     1  UNL1       -0.3370
     16 C          59.3406   92.7434    3.2361 C.ar    1  UNL1        0.1394
     17 C          59.0171   92.3708    1.8196 C.ar    1  UNL1        0.1212
     18 N          59.3609   93.3082    0.7002 N.ar    1  UNL1       -0.2390
     19 C          60.0283   94.6183    0.9974 C.ar    1  UNL1        0.1195
     20 C          60.3518   94.9909    2.4139 C.ar    1  UNL1        0.1196
     21 N          60.0079   94.0534    3.5333 N.ar    1  UNL1       -0.2374
     22 C          62.9346   86.3144   12.5534 C.3     1  UNL1        0.0774
     23 C          63.7537   86.1268   13.7958 C.3     1  UNL1        0.0259
     24 C          63.1198   84.9419   13.1294 C.3     1  UNL1        0.0420
     25 C          62.8607   83.4653   13.0772 C.ar    1  UNL1       -0.0208
     26 C          63.1826   82.6909   11.8337 C.ar    1  UNL1       -0.0042
     27 C          62.9235   81.2144   11.7815 C.ar    1  UNL1       -0.0003
     28 C          62.3425   80.5123   12.9730 C.ar    1  UNL1       -0.0000
     29 C          62.0206   81.2868   14.2166 C.ar    1  UNL1       -0.0003
     30 C          62.2797   82.7633   14.2687 C.ar    1  UNL1       -0.0042
@<TRIPOS>BOND
     1     1     2    2
     2     2     3   am
     3     3    22    1
     4    22    23    1
     5    23    24    1
     6    24    25    1
     7    25    26   ar
     8    26    27   ar
     9    27    28   ar
    10    28    29   ar
    11    29    30   ar
    12     2     4   am
    13     4     5    1
    14     5     6    1
    15     6     7    1
    16     7    11    1
    17    11    12   ar
    18    12    13   ar
    19    13    16    1
    20    16    17   ar
    21    17    18   ar
    22    18    19   ar
    23    19    20   ar
    24    20    21   ar
    25    13    14   ar
    26    14    15   ar
    27     7     8    1
    28     8     9    1
    29    24    22    1
    30    30    25   ar
    31     9     4    1
    32    15    11   ar
    33    21    16   ar
    34     3    10    1
@<TRIPOS>MOLECULE
*****
 30 34 0 0 0
SMALL
GASTEIGER

@<TRIPOS>ATOM
      1 O          58.1164   88.9482    5.9756 O.2     1  UNL1       -0.2526
      2 C          59.3303   89.4937    6.6676 C.2     1  UNL1        0.3039
      3 N          59.8995   90.8175    6.2513 N.am    1  UNL1       -0.2901
      4 N          59.9751   88.7152    7.7759 N.am    1  UNL1       -0.2642
      5 C          59.4059   87.3913    8.1922 C.3     1  UNL1        0.0954
      6 C          60.0506   86.6128    9.3005 C.3     1  UNL1        0.0309
      7 C          61.2646   87.1583    9.9925 C.3     1  UNL1        0.0827
      8 C          61.8338   88.4822    9.5762 C.3     1  UNL1        0.0309
      9 C          61.1890   89.2606    8.4679 C.3     1  UNL1        0.0954
     10 H          60.6963   91.1755    6.7055 H       1  UNL1        0.1509
     11 C          61.9093   86.3798   11.1008 C.ar    1  UNL1        0.2362
     12 N          61.9178   84.8864   11.2402 N.ar    1  UNL1       -0.1894
     13 C          62.6725   84.5417   12.4898 C.ar    1  UNL1        0.2226
     14 N          63.1306   85.8221   13.1227 N.ar    1  UNL1       -0.0544
     15 O          62.6589   86.9582   12.2642 O.2     1  UNL1       -0.3370
     16 C          62.9249   83.1592   13.0144 C.ar    1  UNL1        0.1394
     17 C          63.6567   82.9708   14.3101 C.ar    1  UNL1        0.1212
     18 N          63.9091   81.5884   14.8348 N.ar    1  UNL1       -0.2390
     19 C          63.4296   80.3944   14.0637 C.ar    1  UNL1        0.1195
     20 C          62.6978   80.5829   12.7680 C.ar    1  UNL1        0.1196
     21 N          62.4454   81.9654   12.2433 N.ar    1  UNL1       -0.2374
     22 C          59.2548   91.5960    5.1430 C.3     1  UNL1        0.0774
     23 C          58.0388   92.2368    4.5424 C.3     1  UNL1        0.0259
     24 C          59.3540   92.3034    3.8241 C.3     1  UNL1        0.0420
     25 C          60.1706   92.7504    2.6479 C.ar    1  UNL1       -0.0208
     26 C          59.4948   93.3457    1.4484 C.ar    1  UNL1       -0.0042
     27 C          60.3114   93.7926    0.2722 C.ar    1  UNL1       -0.0003
     28 C          61.8039   93.6442    0.2956 C.ar    1  UNL1       -0.0000
     29 C          62.4797   93.0489    1.4951 C.ar    1  UNL1       -0.0003
     30 C          61.6631   92.6020    2.6712 C.ar    1  UNL1       -0.0042
@<TRIPOS>BOND
     1     1     2    2
     2     2     3   am
     3     3    22    1
     4    22    23    1
     5    23    24    1
     6    24    25    1
     7    25    26   ar
     8    26    27   ar
     9    27    28   ar
    10    28    29   ar
    11    29    30   ar
    12     2     4   am
    13     4     5    1
    14     5     6    1
    15     6     7    1
    16     7    11    1
    17    11    12   ar
    18    12    13   ar
    19    13    16    1
    20    16    17   ar
    21    17    18   ar
    22    18    19   ar
    23    19    20   ar
    24    20    21   ar
    25    13    14   ar
    26    14    15   ar
    27     7     8    1
    28     8     9    1
    29    24    22    1
    30    30    25   ar
    31     9     4    1
    32    15    11   ar
    33    21    16   ar
    34     3    10    1
@<TRIPOS>MOLECULE
*****
 30 34 0 0 0
SMALL
GASTEIGER

@<TRIPOS>ATOM
      1 O          59.1256   93.6495    4.5761 O.2     1  UNL1       -0.2526
      2 C          59.8918   92.6940    3.7100 C.2     1  UNL1        0.3039
      3 N          59.8477   91.2222    3.9958 N.am    1  UNL1       -0.2901
      4 N          60.7019   93.2104    2.5581 N.am    1  UNL1       -0.2642
      5 C          60.7460   94.6824    2.2723 C.3     1  UNL1        0.0954
      6 C          61.5561   95.1988    1.1204 C.3     1  UNL1        0.0309
      7 C          62.3223   94.2433    0.2542 C.3     1  UNL1        0.0827
      8 C          62.2782   92.7715    0.5400 C.3     1  UNL1        0.0309
      9 C          61.4681   92.2551    1.6919 C.3     1  UNL1        0.0954
     10 H          60.3505   90.5951    3.4273 H       1  UNL1        0.1509
     11 C          63.1325   94.7597   -0.8977 C.ar    1  UNL1        0.2362
     12 N          63.4577   94.0078   -2.1542 N.ar    1  UNL1       -0.1894
     13 C          64.2859   94.9021   -3.0284 C.ar    1  UNL1        0.2226
     14 N          64.4725   96.2068   -2.3122 N.ar    1  UNL1       -0.0544
     15 O          63.7596   96.1188   -0.9954 O.2     1  UNL1       -0.3370
     16 C          64.8317   94.5530   -4.3813 C.ar    1  UNL1        0.1394
     17 C          65.3026   95.6386   -5.3030 C.ar    1  UNL1        0.1212
     18 N          65.8484   95.2896   -6.6559 N.ar    1  UNL1       -0.2390
     19 C          65.9233   93.8549   -7.0870 C.ar    1  UNL1        0.1195
     20 C          65.4524   92.7692   -6.1653 C.ar    1  UNL1        0.1196
     21 N          64.9065   93.1183   -4.8124 N.ar    1  UNL1       -0.2374
     22 C          59.0375   90.7058    5.1477 C.3     1  UNL1        0.0774
     23 C          57.7566   90.6824    5.9278 C.3     1  UNL1        0.0259
     24 C          58.9152   89.8347    6.3627 C.3     1  UNL1        0.0420
     25 C          59.5136   88.8423    7.3152 C.ar    1  UNL1       -0.0208
     26 C          60.2307   89.3197    8.5431 C.ar    1  UNL1       -0.0042
     27 C          60.8290   88.3274    9.4956 C.ar    1  UNL1       -0.0003
     28 C          60.7101   86.8577    9.2202 C.ar    1  UNL1       -0.0000
     29 C          59.9930   86.3803    7.9924 C.ar    1  UNL1       -0.0003
     30 C          59.3947   87.3726    7.0399 C.ar    1  UNL1       -0.0042
@<TRIPOS>BOND
     1     1     2    2
     2     2     3   am
     3     3    22    1
     4    22    23    1
     5    23    24    1
     6    24    25    1
     7    25    26   ar
     8    26    27   ar
     9    27    28   ar
    10    28    29   ar
    11    29    30   ar
    12     2     4   am
    13     4     5    1
    14     5     6    1
    15     6     7    1
    16     7    11    1
    17    11    12   ar
    18    12    13   ar
    19    13    16    1
    20    16    17   ar
    21    17    18   ar
    22    18    19   ar
    23    19    20   ar
    24    20    21   ar
    25    13    14   ar
    26    14    15   ar
    27     7     8    1
    28     8     9    1
    29    24    22    1
    30    30    25   ar
    31     9     4    1
    32    15    11   ar
    33    21    16   ar
    34     3    10    1
@<TRIPOS>MOLECULE
*****
 30 34 0 0 0
SMALL
GASTEIGER

@<TRIPOS>ATOM
      1 O          63.4813   84.3827   15.9131 O.2     1  UNL1       -0.2526
      2 C          63.3038   85.0315   14.5723 C.2     1  UNL1        0.3039
      3 N          62.7427   84.2434   13.4260 N.am    1  UNL1       -0.2901
      4 N          63.6876   86.4685   14.3778 N.am    1  UNL1       -0.2642
      5 C          64.2487   87.2567   15.5242 C.3     1  UNL1        0.0954
      6 C          64.6324   88.6937   15.3297 C.3     1  UNL1        0.0309
      7 C          64.4550   89.3425   13.9890 C.3     1  UNL1        0.0827
      8 C          63.8939   88.5544   12.8427 C.3     1  UNL1        0.0309
      9 C          63.5102   87.1174   13.0371 C.3     1  UNL1        0.0954
     10 H          62.6263   84.6692   12.5461 H       1  UNL1        0.1509
     11 C          64.8387   90.7795   13.7945 C.ar    1  UNL1        0.2362
     12 N          65.1912   91.4291   12.4892 N.ar    1  UNL1       -0.1894
     13 C          65.5077   92.8703   12.7592 C.ar    1  UNL1        0.2226
     14 N          65.3507   93.1114   14.2314 N.ar    1  UNL1       -0.0544
     15 O          64.9373   91.8192   14.8712 O.2     1  UNL1       -0.3370
     16 C          65.9103   93.8911   11.7366 C.ar    1  UNL1        0.1394
     17 C          66.1625   93.4729   10.3183 C.ar    1  UNL1        0.1212
     18 N          66.5652   94.4936    9.2956 N.ar    1  UNL1       -0.2390
     19 C          66.7157   95.9326    9.6912 C.ar    1  UNL1        0.1195
     20 C          66.4635   96.3509   11.1094 C.ar    1  UNL1        0.1196
     21 N          66.0608   95.3301   12.1322 N.ar    1  UNL1       -0.2374
     22 C          62.3590   82.8064   13.6205 C.3     1  UNL1        0.0774
     23 C          61.7939   81.7182   14.4845 C.3     1  UNL1        0.0259
     24 C          62.2596   81.4056   13.0933 C.3     1  UNL1        0.0420
     25 C          62.4711   80.4164   11.9856 C.ar    1  UNL1       -0.0208
     26 C          62.8659   80.8933   10.6194 C.ar    1  UNL1       -0.0042
     27 C          63.0774   79.9041    9.5119 C.ar    1  UNL1       -0.0003
     28 C          62.8940   78.4380    9.7706 C.ar    1  UNL1       -0.0000
     29 C          62.4992   77.9611   11.1368 C.ar    1  UNL1       -0.0003
     30 C          62.2877   78.9503   12.2443 C.ar    1  UNL1       -0.0042
@<TRIPOS>BOND
     1     1     2    2
     2     2     3   am
     3     3    22    1
     4    22    23    1
     5    23    24    1
     6    24    25    1
     7    25    26   ar
     8    26    27   ar
     9    27    28   ar
    10    28    29   ar
    11    29    30   ar
    12     2     4   am
    13     4     5    1
    14     5     6    1
    15     6     7    1
    16     7    11    1
    17    11    12   ar
    18    12    13   ar
    19    13    16    1
    20    16    17   ar
    21    17    18   ar
    22    18    19   ar
    23    19    20   ar
    24    20    21   ar
    25    13    14   ar
    26    14    15   ar
    27     7     8    1
    28     8     9    1
    29    24    22    1
    30    30    25   ar
    31     9     4    1
    32    15    11   ar
    33    21    16   ar
    34     3    10    1
