@<TRIPOS>MOLECULE
*****
 25 27 0 0 0
SMALL
GASTEIGER

@<TRIPOS>ATOM
      1 C          66.2340   92.5643   12.2416 C.3     1  UNL1        0.0909
      2 C          66.9231   92.5575   13.5740 C.ar    1  UNL1        0.0651
      3 C          66.1341   92.7933   14.8277 C.ar    1  UNL1        0.0151
      4 C          66.8233   92.7865   16.1600 C.ar    1  UNL1        0.0028
      5 C          68.3014   92.5439   16.2386 C.ar    1  UNL1        0.0207
      6 C          69.0905   92.3081   14.9848 C.ar    1  UNL1        0.0985
      7 N          68.4013   92.3149   13.6525 N.ar    1  UNL1       -0.2478
      8 C          67.0270   92.7874   10.9882 C.ar    1  UNL1        0.0603
      9 C          66.6938   93.7593    9.8953 C.ar    1  UNL1        0.1135
     10 N          67.7534   93.6504    8.8392 N.ar    1  UNL1       -0.2229
     11 C          68.7415   92.6111    9.2793 C.ar    1  UNL1        0.1748
     12 N          68.2926   92.0778   10.6075 N.ar    1  UNL1       -0.3379
     13 H          68.7485   91.3839   11.1364 H       1  UNL1        0.1672
     14 C          64.7517   92.3479   12.1628 C.3     1  UNL1        0.0740
     15 S          64.1429   91.1072   12.7458 S.3     1  UNL1       -0.1129
     16 C          61.8497   88.2730   10.1079 C.ar    1  UNL1       -0.0228
     17 C          62.4574   87.7808   11.3878 C.ar    1  UNL1       -0.0038
     18 C          63.2218   88.7256   12.2671 C.ar    1  UNL1        0.0058
     19 C          63.3785   90.1625   11.8665 C.ar    1  UNL1        0.0252
     20 C          62.7708   90.6547   10.5865 C.ar    1  UNL1        0.0058
     21 C          62.0064   89.7100    9.7072 C.ar    1  UNL1       -0.0038
     22 C          60.1610   88.4423    8.8352 C.3     1  UNL1        0.0044
     23 C          61.0853   87.3283    9.2286 C.3     1  UNL1        0.0189
     24 C          62.0096   86.2143    9.6219 C.3     1  UNL1        0.0044
     25 C          60.3209   86.3835    8.3493 C.3     1  UNL1        0.0044
@<TRIPOS>BOND
     1    22    23    1
     2    23    24    1
     3    23    25    1
     4    23    16    1
     5    16    17   ar
     6    17    18   ar
     7    18    19   ar
     8    19    15    1
     9    15    14    1
    10    14     1    1
    11     1     2    1
    12     2     3   ar
    13     3     4   ar
    14     4     5   ar
    15     5     6   ar
    16     6     7   ar
    17     1     8    1
    18     8     9   ar
    19     9    10   ar
    20    10    11   ar
    21    11    12   ar
    22    19    20   ar
    23    20    21   ar
    24    21    16   ar
    25     7     2   ar
    26    12     8   ar
    27    12    13    1
@<TRIPOS>MOLECULE
*****
 25 27 0 0 0
SMALL
GASTEIGER

@<TRIPOS>ATOM
      1 C          66.2221   92.6728   12.4749 C.3     1  UNL1        0.0909
      2 C          66.9389   93.0476   11.2116 C.ar    1  UNL1        0.0651
      3 C          67.6843   92.0035   10.4343 C.ar    1  UNL1        0.0151
      4 C          68.4011   92.3782    9.1710 C.ar    1  UNL1        0.0028
      5 C          68.3724   93.7971    8.6851 C.ar    1  UNL1        0.0207
      6 C          67.6269   94.8411    9.4624 C.ar    1  UNL1        0.0985
      7 N          66.9102   94.4664   10.7256 N.ar    1  UNL1       -0.2478
      8 C          66.9708   92.6160   13.7734 C.ar    1  UNL1        0.0603
      9 C          66.4595   93.0752   15.1067 C.ar    1  UNL1        0.1135
     10 N          67.5349   92.8330   16.1240 N.ar    1  UNL1       -0.2229
     11 C          68.7109   92.2242   15.4193 C.ar    1  UNL1        0.1748
     12 N          68.3622   92.0901   13.9666 N.ar    1  UNL1       -0.3379
     13 H          68.9444   91.7216   13.2634 H       1  UNL1        0.1672
     14 C          64.7566   92.3549   12.4396 C.3     1  UNL1        0.0740
     15 S          64.2661   91.0231   12.9250 S.3     1  UNL1       -0.1129
     16 C          61.8988   88.3593   10.1772 C.ar    1  UNL1       -0.0228
     17 C          62.4604   87.8094   11.4548 C.ar    1  UNL1       -0.0038
     18 C          63.2495   88.6974   12.3707 C.ar    1  UNL1        0.0058
     19 C          63.4770   90.1352   12.0090 C.ar    1  UNL1        0.0252
     20 C          62.9155   90.6851   10.7315 C.ar    1  UNL1        0.0058
     21 C          62.1264   89.7971    9.8156 C.ar    1  UNL1       -0.0038
     22 C          60.2327   88.6311    8.8926 C.3     1  UNL1        0.0044
     23 C          61.1098   87.4714    9.2613 C.3     1  UNL1        0.0189
     24 C          61.9868   86.3117    9.6299 C.3     1  UNL1        0.0044
     25 C          60.3207   86.5835    8.3454 C.3     1  UNL1        0.0044
@<TRIPOS>BOND
     1    22    23    1
     2    23    24    1
     3    23    25    1
     4    23    16    1
     5    16    17   ar
     6    17    18   ar
     7    18    19   ar
     8    19    15    1
     9    15    14    1
    10    14     1    1
    11     1     2    1
    12     2     3   ar
    13     3     4   ar
    14     4     5   ar
    15     5     6   ar
    16     6     7   ar
    17     1     8    1
    18     8     9   ar
    19     9    10   ar
    20    10    11   ar
    21    11    12   ar
    22    19    20   ar
    23    20    21   ar
    24    21    16   ar
    25     7     2   ar
    26    12     8   ar
    27    12    13    1
@<TRIPOS>MOLECULE
*****
 25 27 0 0 0
SMALL
GASTEIGER

@<TRIPOS>ATOM
      1 C          63.6882   83.3351   13.4654 C.3     1  UNL1        0.0909
      2 C          63.5929   84.4388   14.4768 C.ar    1  UNL1        0.0651
      3 C          64.3849   85.6987   14.2889 C.ar    1  UNL1        0.0151
      4 C          64.2896   86.8024   15.3003 C.ar    1  UNL1        0.0028
      5 C          63.4023   86.6461   16.4996 C.ar    1  UNL1        0.0207
      6 C          62.6104   85.3861   16.6875 C.ar    1  UNL1        0.0985
      7 N          62.7057   84.2825   15.6761 N.ar    1  UNL1       -0.2478
      8 C          62.8287   82.1137   13.6050 C.ar    1  UNL1        0.0603
      9 C          63.1653   80.7378   13.1115 C.ar    1  UNL1        0.1135
     10 N          62.0263   79.8275   13.4640 N.ar    1  UNL1       -0.2229
     11 C          60.9859   80.6409   14.1753 C.ar    1  UNL1        0.1748
     12 N          61.4818   82.0538   14.2624 N.ar    1  UNL1       -0.3379
     13 H          61.0067   82.8093   14.6782 H       1  UNL1        0.1672
     14 C          64.6430   83.4528   12.3146 C.3     1  UNL1        0.0740
     15 S          64.1448   83.2997   10.9081 S.3     1  UNL1       -0.1129
     16 C          61.3738   86.3813    9.1545 C.ar    1  UNL1       -0.0228
     17 C          62.3708   85.6836    8.2775 C.ar    1  UNL1       -0.0038
     18 C          63.2945   84.6564    8.8621 C.ar    1  UNL1        0.0058
     19 C          63.2211   84.3269   10.3235 C.ar    1  UNL1        0.0252
     20 C          62.2241   85.0246   11.2005 C.ar    1  UNL1        0.0058
     21 C          61.3004   86.0518   10.6160 C.ar    1  UNL1       -0.0038
     22 C          59.8207   86.3530    7.7098 C.3     1  UNL1        0.0044
     23 C          60.4501   87.4085    8.5700 C.3     1  UNL1        0.0189
     24 C          61.0794   88.4639    9.4301 C.3     1  UNL1        0.0044
     25 C          59.5264   88.4357    7.9854 C.3     1  UNL1        0.0044
@<TRIPOS>BOND
     1    22    23    1
     2    23    24    1
     3    23    25    1
     4    23    16    1
     5    16    17   ar
     6    17    18   ar
     7    18    19   ar
     8    19    15    1
     9    15    14    1
    10    14     1    1
    11     1     2    1
    12     2     3   ar
    13     3     4   ar
    14     4     5   ar
    15     5     6   ar
    16     6     7   ar
    17     1     8    1
    18     8     9   ar
    19     9    10   ar
    20    10    11   ar
    21    11    12   ar
    22    19    20   ar
    23    20    21   ar
    24    21    16   ar
    25     7     2   ar
    26    12     8   ar
    27    12    13    1
@<TRIPOS>MOLECULE
*****
 25 27 0 0 0
SMALL
GASTEIGER

@<TRIPOS>ATOM
      1 C          61.2961   87.9599   10.2956 C.3     1  UNL1        0.0909
      2 C          61.9738   86.6400   10.5161 C.ar    1  UNL1        0.0651
      3 C          62.5889   85.9101    9.3590 C.ar    1  UNL1        0.0151
      4 C          63.2666   84.5902    9.5794 C.ar    1  UNL1        0.0028
      5 C          63.3293   84.0002   10.9571 C.ar    1  UNL1        0.0207
      6 C          62.7142   84.7301   12.1143 C.ar    1  UNL1        0.0985
      7 N          62.0365   86.0500   11.8938 N.ar    1  UNL1       -0.2478
      8 C          60.3730   88.1432    9.1276 C.ar    1  UNL1        0.0603
      9 C          59.4190   87.1189    8.5887 C.ar    1  UNL1        0.1135
     10 N          58.6982   87.7255    7.4214 N.ar    1  UNL1       -0.2229
     11 C          59.2069   89.1249    7.2390 C.ar    1  UNL1        0.1748
     12 N          60.2419   89.3830    8.2935 N.ar    1  UNL1       -0.3379
     13 H          60.7466   90.2192    8.4165 H       1  UNL1        0.1672
     14 C          61.5415   89.0965   11.2432 C.3     1  UNL1        0.0740
     15 S          62.5045   90.1858   10.8746 S.3     1  UNL1       -0.1129
     16 C          65.6036   91.5478   13.8395 C.ar    1  UNL1       -0.0228
     17 C          65.4663   92.2509   12.5216 C.ar    1  UNL1       -0.0038
     18 C          64.4333   91.7969   11.5333 C.ar    1  UNL1        0.0058
     19 C          63.5375   90.6398   11.8629 C.ar    1  UNL1        0.0252
     20 C          63.6748   89.9367   13.1807 C.ar    1  UNL1        0.0058
     21 C          64.7078   90.3907   14.1690 C.ar    1  UNL1       -0.0038
     22 C          65.5696   92.1603   15.8702 C.3     1  UNL1        0.0044
     23 C          66.6366   92.0019   14.8278 C.3     1  UNL1        0.0189
     24 C          67.7035   91.8434   13.7854 C.3     1  UNL1        0.0044
     25 C          67.6696   92.4559   15.8161 C.3     1  UNL1        0.0044
@<TRIPOS>BOND
     1    22    23    1
     2    23    24    1
     3    23    25    1
     4    23    16    1
     5    16    17   ar
     6    17    18   ar
     7    18    19   ar
     8    19    15    1
     9    15    14    1
    10    14     1    1
    11     1     2    1
    12     2     3   ar
    13     3     4   ar
    14     4     5   ar
    15     5     6   ar
    16     6     7   ar
    17     1     8    1
    18     8     9   ar
    19     9    10   ar
    20    10    11   ar
    21    11    12   ar
    22    19    20   ar
    23    20    21   ar
    24    21    16   ar
    25     7     2   ar
    26    12     8   ar
    27    12    13    1
@<TRIPOS>MOLECULE
*****
 25 27 0 0 0
SMALL
GASTEIGER

@<TRIPOS>ATOM
      1 C          66.0987   92.4970   12.5757 C.3     1  UNL1        0.0909
      2 C          66.7051   93.1339   11.3604 C.ar    1  UNL1        0.0651
      3 C          67.4631   92.2960   10.3738 C.ar    1  UNL1        0.0151
      4 C          68.0695   92.9328    9.1585 C.ar    1  UNL1        0.0028
      5 C          67.9179   94.4075    8.9299 C.ar    1  UNL1        0.0207
      6 C          67.1599   95.2454    9.9166 C.ar    1  UNL1        0.0985
      7 N          66.5535   94.6086   11.1318 N.ar    1  UNL1       -0.2478
      8 C          66.8447   92.5034   13.8769 C.ar    1  UNL1        0.0603
      9 C          66.3422   93.0538   15.1786 C.ar    1  UNL1        0.1135
     10 N          67.4111   92.8510   16.2112 N.ar    1  UNL1       -0.2229
     11 C          68.5743   92.1752   15.5477 C.ar    1  UNL1        0.1748
     12 N          68.2243   91.9604   14.1051 N.ar    1  UNL1       -0.3379
     13 H          68.7991   91.5372   13.4269 H       1  UNL1        0.1672
     14 C          64.7463   91.8539   12.4895 C.3     1  UNL1        0.0740
     15 S          64.2366   91.0239   13.6302 S.3     1  UNL1       -0.1129
     16 C          63.3902   86.6458   13.0248 C.ar    1  UNL1       -0.0228
     17 C          64.1309   87.1047   14.2458 C.ar    1  UNL1       -0.0038
     18 C          64.4130   88.5641   14.4476 C.ar    1  UNL1        0.0058
     19 C          63.9544   89.5645   13.4284 C.ar    1  UNL1        0.0252
     20 C          63.2137   89.1056   12.2075 C.ar    1  UNL1        0.0058
     21 C          62.9316   87.6463   12.0057 C.ar    1  UNL1       -0.0038
     22 C          63.9253   84.8605   14.0379 C.3     1  UNL1        0.0044
     23 C          63.1080   85.1865   12.8231 C.3     1  UNL1        0.0189
     24 C          62.2907   85.5125   11.6083 C.3     1  UNL1        0.0044
     25 C          62.8259   83.7271   12.6213 C.3     1  UNL1        0.0044
@<TRIPOS>BOND
     1    22    23    1
     2    23    24    1
     3    23    25    1
     4    23    16    1
     5    16    17   ar
     6    17    18   ar
     7    18    19   ar
     8    19    15    1
     9    15    14    1
    10    14     1    1
    11     1     2    1
    12     2     3   ar
    13     3     4   ar
    14     4     5   ar
    15     5     6   ar
    16     6     7   ar
    17     1     8    1
    18     8     9   ar
    19     9    10   ar
    20    10    11   ar
    21    11    12   ar
    22    19    20   ar
    23    20    21   ar
    24    21    16   ar
    25     7     2   ar
    26    12     8   ar
    27    12    13    1
@<TRIPOS>MOLECULE
*****
 25 27 0 0 0
SMALL
GASTEIGER

@<TRIPOS>ATOM
      1 C          61.5276   86.4057   10.9826 C.3     1  UNL1        0.0909
      2 C          61.5660   85.9513    9.5536 C.ar    1  UNL1        0.0651
      3 C          62.8261   85.3688    8.9855 C.ar    1  UNL1        0.0151
      4 C          62.8646   84.9143    7.5564 C.ar    1  UNL1        0.0028
      5 C          61.6429   85.0425    6.6956 C.ar    1  UNL1        0.0207
      6 C          60.3828   85.6250    7.2637 C.ar    1  UNL1        0.0985
      7 N          60.3444   86.0794    8.6927 N.ar    1  UNL1       -0.2478
      8 C          62.3798   85.7220   12.0103 C.ar    1  UNL1        0.0603
      9 C          62.4884   84.2409   12.2217 C.ar    1  UNL1        0.1135
     10 N          63.4489   84.0028   13.3490 N.ar    1  UNL1       -0.2229
     11 C          63.9339   85.3367   13.8343 C.ar    1  UNL1        0.1748
     12 N          63.2732   86.3992   13.0069 N.ar    1  UNL1       -0.3379
     13 H          63.4031   87.3705   13.1014 H       1  UNL1        0.1672
     14 C          60.6368   87.5439   11.3839 C.3     1  UNL1        0.0740
     15 S          60.7976   88.8868   10.7355 S.3     1  UNL1       -0.1129
     16 C          64.2804   91.5148   11.8373 C.ar    1  UNL1       -0.0228
     17 C          63.7103   91.5674   10.4509 C.ar    1  UNL1       -0.0038
     18 C          62.5494   90.6914   10.0836 C.ar    1  UNL1        0.0058
     19 C          61.9586   89.7628   11.1028 C.ar    1  UNL1        0.0252
     20 C          62.5287   89.7103   12.4892 C.ar    1  UNL1        0.0058
     21 C          63.6896   90.5863   12.8564 C.ar    1  UNL1       -0.0038
     22 C          65.4534   91.7973   13.5821 C.3     1  UNL1        0.0044
     23 C          65.4413   92.3908   12.2046 C.3     1  UNL1        0.0189
     24 C          65.4292   92.9844   10.8271 C.3     1  UNL1        0.0044
     25 C          66.6022   93.2668   12.5719 C.3     1  UNL1        0.0044
@<TRIPOS>BOND
     1    22    23    1
     2    23    24    1
     3    23    25    1
     4    23    16    1
     5    16    17   ar
     6    17    18   ar
     7    18    19   ar
     8    19    15    1
     9    15    14    1
    10    14     1    1
    11     1     2    1
    12     2     3   ar
    13     3     4   ar
    14     4     5   ar
    15     5     6   ar
    16     6     7   ar
    17     1     8    1
    18     8     9   ar
    19     9    10   ar
    20    10    11   ar
    21    11    12   ar
    22    19    20   ar
    23    20    21   ar
    24    21    16   ar
    25     7     2   ar
    26    12     8   ar
    27    12    13    1
@<TRIPOS>MOLECULE
*****
 25 27 0 0 0
SMALL
GASTEIGER

@<TRIPOS>ATOM
      1 C          61.5939   86.5627   10.5945 C.3     1  UNL1        0.0909
      2 C          62.3968   85.7763   11.5879 C.ar    1  UNL1        0.0651
      3 C          62.5241   84.2890   11.4402 C.ar    1  UNL1        0.0151
      4 C          63.3271   83.5026   12.4336 C.ar    1  UNL1        0.0028
      5 C          64.0027   84.2035   13.5748 C.ar    1  UNL1        0.0207
      6 C          63.8754   85.6908   13.7225 C.ar    1  UNL1        0.0985
      7 N          63.0725   86.4771   12.7291 N.ar    1  UNL1       -0.2478
      8 C          61.4600   86.0734    9.1829 C.ar    1  UNL1        0.0603
      9 C          60.2050   86.0838    8.3615 C.ar    1  UNL1        0.1135
     10 N          60.5269   85.5047    7.0158 N.ar    1  UNL1       -0.2229
     11 C          61.9810   85.1363    7.0055 C.ar    1  UNL1        0.1748
     12 N          62.5576   85.4878    8.3449 N.ar    1  UNL1       -0.3379
     13 H          63.4924   85.3571    8.6248 H       1  UNL1        0.1672
     14 C          60.9249   87.8384   11.0127 C.3     1  UNL1        0.0740
     15 S          61.3291   89.1386   10.3834 S.3     1  UNL1       -0.1129
     16 C          64.5542   91.6455   12.2714 C.ar    1  UNL1       -0.0228
     17 C          63.7729   90.6751   13.1068 C.ar    1  UNL1       -0.0038
     18 C          62.6979   89.8395   12.4774 C.ar    1  UNL1        0.0058
     19 C          62.4041   89.9742   11.0127 C.ar    1  UNL1        0.0252
     20 C          63.1854   90.9447   10.1773 C.ar    1  UNL1        0.0058
     21 C          64.2604   91.7803   10.8067 C.ar    1  UNL1       -0.0038
     22 C          65.6031   91.6005   14.1147 C.3     1  UNL1        0.0044
     23 C          65.6292   92.4811   12.9007 C.3     1  UNL1        0.0189
     24 C          65.6553   93.3618   11.6868 C.3     1  UNL1        0.0044
     25 C          66.7042   93.3168   13.5301 C.3     1  UNL1        0.0044
@<TRIPOS>BOND
     1    22    23    1
     2    23    24    1
     3    23    25    1
     4    23    16    1
     5    16    17   ar
     6    17    18   ar
     7    18    19   ar
     8    19    15    1
     9    15    14    1
    10    14     1    1
    11     1     2    1
    12     2     3   ar
    13     3     4   ar
    14     4     5   ar
    15     5     6   ar
    16     6     7   ar
    17     1     8    1
    18     8     9   ar
    19     9    10   ar
    20    10    11   ar
    21    11    12   ar
    22    19    20   ar
    23    20    21   ar
    24    21    16   ar
    25     7     2   ar
    26    12     8   ar
    27    12    13    1
@<TRIPOS>MOLECULE
*****
 25 27 0 0 0
SMALL
GASTEIGER

@<TRIPOS>ATOM
      1 C          62.0291   86.2655   11.0658 C.3     1  UNL1        0.0909
      2 C          61.8241   85.8930    9.6273 C.ar    1  UNL1        0.0651
      3 C          62.9443   85.2723    8.8463 C.ar    1  UNL1        0.0151
      4 C          62.7393   84.8998    7.4078 C.ar    1  UNL1        0.0028
      5 C          61.4141   85.1480    6.7503 C.ar    1  UNL1        0.0207
      6 C          60.2939   85.7687    7.5313 C.ar    1  UNL1        0.0985
      7 N          60.4990   86.1412    8.9698 N.ar    1  UNL1       -0.2478
      8 C          62.6423   85.2798   12.0157 C.ar    1  UNL1        0.0603
      9 C          63.4714   85.6146   13.2200 C.ar    1  UNL1        0.1135
     10 N          63.8756   84.3280   13.8768 N.ar    1  UNL1       -0.2229
     11 C          63.2962   83.1980   13.0783 C.ar    1  UNL1        0.1748
     12 N          62.5340   83.7863   11.9281 N.ar    1  UNL1       -0.3379
     13 H          62.0480   83.2809   11.2370 H       1  UNL1        0.1672
     14 C          61.6210   87.6237   11.5543 C.3     1  UNL1        0.0740
     15 S          62.2120   88.8536   10.9315 S.3     1  UNL1       -0.1129
     16 C          65.0167   91.4516   13.3051 C.ar    1  UNL1       -0.0228
     17 C          64.5474   90.1436   13.8696 C.ar    1  UNL1       -0.0038
     18 C          63.6125   89.2776   13.0784 C.ar    1  UNL1        0.0058
     19 C          63.1469   89.7196   11.7227 C.ar    1  UNL1        0.0252
     20 C          63.6163   91.0277   11.1583 C.ar    1  UNL1        0.0058
     21 C          64.5512   91.8937   11.9495 C.ar    1  UNL1       -0.0038
     22 C          66.5389   92.8479   12.8220 C.3     1  UNL1        0.0044
     23 C          65.9517   92.3176   14.0963 C.3     1  UNL1        0.0189
     24 C          65.3644   91.7874   15.3707 C.3     1  UNL1        0.0044
     25 C          66.8866   93.1837   14.8875 C.3     1  UNL1        0.0044
@<TRIPOS>BOND
     1    22    23    1
     2    23    24    1
     3    23    25    1
     4    23    16    1
     5    16    17   ar
     6    17    18   ar
     7    18    19   ar
     8    19    15    1
     9    15    14    1
    10    14     1    1
    11     1     2    1
    12     2     3   ar
    13     3     4   ar
    14     4     5   ar
    15     5     6   ar
    16     6     7   ar
    17     1     8    1
    18     8     9   ar
    19     9    10   ar
    20    10    11   ar
    21    11    12   ar
    22    19    20   ar
    23    20    21   ar
    24    21    16   ar
    25     7     2   ar
    26    12     8   ar
    27    12    13    1
@<TRIPOS>MOLECULE
*****
 25 27 0 0 0
SMALL
GASTEIGER

@<TRIPOS>ATOM
      1 C          63.6093   83.5274   13.6729 C.3     1  UNL1        0.0909
      2 C          62.8618   82.2277   13.7171 C.ar    1  UNL1        0.0651
      3 C          63.5356   80.9598   13.2833 C.ar    1  UNL1        0.0151
      4 C          62.7881   79.6600   13.3275 C.ar    1  UNL1        0.0028
      5 C          61.3666   79.6283   13.8055 C.ar    1  UNL1        0.0207
      6 C          60.6927   80.8963   14.2392 C.ar    1  UNL1        0.0985
      7 N          61.4403   82.1960   14.1950 N.ar    1  UNL1       -0.2478
      8 C          63.4203   84.5389   14.7644 C.ar    1  UNL1        0.0603
      9 C          64.1177   85.8626   14.8701 C.ar    1  UNL1        0.1135
     10 N          63.6291   86.5460   16.1128 N.ar    1  UNL1       -0.2229
     11 C          62.6297   85.6445   16.7751 C.ar    1  UNL1        0.1748
     12 N          62.5007   84.4041   15.9417 N.ar    1  UNL1       -0.3379
     13 H          61.9152   83.6362   16.1338 H       1  UNL1        0.1672
     14 C          64.5459   83.8157   12.5373 C.3     1  UNL1        0.0740
     15 S          64.1071   83.5743   11.1234 S.3     1  UNL1       -0.1129
     16 C          61.2688   86.4400    9.1280 C.ar    1  UNL1       -0.0228
     17 C          61.1937   86.2197   10.6098 C.ar    1  UNL1       -0.0038
     18 C          62.1398   85.2644   11.2749 C.ar    1  UNL1        0.0058
     19 C          63.1610   84.5295   10.4583 C.ar    1  UNL1        0.0252
     20 C          63.2361   84.7499    8.9765 C.ar    1  UNL1        0.0058
     21 C          62.2900   85.7051    8.3114 C.ar    1  UNL1       -0.0038
     22 C          59.7497   86.2670    7.6575 C.3     1  UNL1        0.0044
     23 C          60.3227   87.3953    8.4629 C.3     1  UNL1        0.0189
     24 C          60.8957   88.5236    9.2682 C.3     1  UNL1        0.0044
     25 C          59.3766   88.3505    7.7977 C.3     1  UNL1        0.0044
@<TRIPOS>BOND
     1    22    23    1
     2    23    24    1
     3    23    25    1
     4    23    16    1
     5    16    17   ar
     6    17    18   ar
     7    18    19   ar
     8    19    15    1
     9    15    14    1
    10    14     1    1
    11     1     2    1
    12     2     3   ar
    13     3     4   ar
    14     4     5   ar
    15     5     6   ar
    16     6     7   ar
    17     1     8    1
    18     8     9   ar
    19     9    10   ar
    20    10    11   ar
    21    11    12   ar
    22    19    20   ar
    23    20    21   ar
    24    21    16   ar
    25     7     2   ar
    26    12     8   ar
    27    12    13    1
