@<TRIPOS>MOLECULE
*****
 34 38 0 0 0
SMALL
GASTEIGER

@<TRIPOS>ATOM
      1 C          64.2017   83.0579   14.4604 C.3     1  UNL1        0.2159
      2 N          63.7434   84.2814   13.7234 N.am    1  UNL1       -0.1449
      3 C          64.1691   85.6417   14.1904 C.2     1  UNL1        0.3728
      4 N          65.0531   85.7787   15.3945 N.2     1  UNL1       -0.1329
      5 N          63.7108   86.8652   13.4533 N.pl3   1  UNL1       -0.2247
      6 C          62.8268   86.7282   12.2493 C.3     1  UNL1        0.1559
      7 C          62.2213   87.7451   11.3278 C.3     1  UNL1        0.1327
      8 N          61.4214   87.0132   10.2912 N.pl3   1  UNL1       -0.2740
      9 C          61.5325   85.5439   10.5721 C.3     1  UNL1        0.1079
     10 C          62.4011   85.3678   11.7823 C.3     1  UNL1        0.1498
     11 C          62.8594   84.1444   12.5193 C.2     1  UNL1        0.2919
     12 O          62.4337   82.7840   12.0523 O.2     1  UNL1       -0.2563
     13 H          65.3540   84.9758   15.8782 H       1  UNL1        0.3058
     14 H          63.9902   87.7581   13.7599 H       1  UNL1        0.2454
     15 C          60.6464   87.6404    9.1705 C.ar    1  UNL1        0.2204
     16 N          59.8323   86.7815    8.2489 N.ar    1  UNL1       -0.2097
     17 C          59.0573   87.4088    7.1282 C.ar    1  UNL1        0.1330
     18 C          59.0964   88.8950    6.9291 C.ar    1  UNL1        0.1784
     19 F          58.3214   89.5222    5.8084 F       1  UNL1       -0.2009
     20 C          59.9105   89.7539    7.8507 C.ar    1  UNL1        0.1330
     21 N          60.6855   89.1266    8.9714 N.ar    1  UNL1       -0.2097
     22 C          63.1692   88.1467   12.5966 C.ar    1  UNL1        0.0397
     23 C          64.0897   88.5877   13.6957 C.ar    1  UNL1        0.0057
     24 C          64.1405   90.0868   13.6842 C.ar    1  UNL1        0.0068
     25 C          63.2514   90.5723   12.5780 C.ar    1  UNL1        0.0352
     26 S          62.6511   89.3732   11.9058 S.2     1  UNL1       -0.0878
     27 C          64.9401   90.9491   14.6154 C.ar    1  UNL1        0.0012
     28 C          64.3177   91.4676   15.8779 C.ar    1  UNL1        0.0001
     29 C          65.1173   92.3298   16.8091 C.ar    1  UNL1        0.0007
     30 C          66.5393   92.6736   16.4779 C.ar    1  UNL1        0.0103
     31 C          67.1617   92.1551   15.2154 C.ar    1  UNL1        0.0684
     32 C          66.3621   91.2929   14.2842 C.ar    1  UNL1        0.0103
     33 C          68.5837   92.4989   14.8842 C.1     1  UNL1        0.1004
     34 N          70.0057   92.8427   14.5530 N.1     1  UNL1       -0.1908
@<TRIPOS>BOND
     1     1     2    1
     2     2     3    1
     3     3     4    2
     4     3     5    1
     5     5     6    1
     6     6    22    1
     7    22    23   ar
     8    23    24   ar
     9    24    27    1
    10    27    28   ar
    11    28    29   ar
    12    29    30   ar
    13    30    31   ar
    14    31    33    1
    15    33    34    3
    16    31    32   ar
    17    24    25   ar
    18    25    26   ar
    19     6     7    1
    20     7     8    1
    21     8    15    1
    22    15    16   ar
    23    16    17   ar
    24    17    18   ar
    25    18    19    1
    26    18    20   ar
    27    20    21   ar
    28     8     9    1
    29    10     9    1
    30    10    11    1
    31    11    12    2
    32    11     2   am
    33    10     6    1
    34    26    22   ar
    35    21    15   ar
    36    32    27   ar
    37     4    13    1
    38     5    14    1
@<TRIPOS>MOLECULE
*****
 34 38 0 0 0
SMALL
GASTEIGER

@<TRIPOS>ATOM
      1 C          66.6196   94.1582   13.2865 C.3     1  UNL1        0.2159
      2 N          65.7862   92.9348   13.0438 N.am    1  UNL1       -0.1449
      3 C          65.7495   91.8375   14.0657 C.2     1  UNL1        0.3728
      4 N          66.5462   91.9634   15.3304 N.2     1  UNL1       -0.1329
      5 N          64.9161   90.6141   13.8230 N.pl3   1  UNL1       -0.2247
      6 C          64.1194   90.4881   12.5583 C.3     1  UNL1        0.1559
      7 C          63.2130   89.4081   12.0464 C.3     1  UNL1        0.1327
      8 N          62.6896   89.8381   10.7081 N.pl3   1  UNL1       -0.2740
      9 C          63.2724   91.1838   10.3928 C.3     1  UNL1        0.1079
     10 C          64.1562   91.5855   11.5363 C.3     1  UNL1        0.1498
     11 C          64.9896   92.8089   11.7791 C.2     1  UNL1        0.2919
     12 O          65.0263   93.9062   10.7571 O.2     1  UNL1       -0.2563
     13 H          67.0932   92.7663   15.4898 H       1  UNL1        0.3058
     14 H          64.8920   89.8938   14.4937 H       1  UNL1        0.2454
     15 C          61.7484   89.0591    9.8377 C.ar    1  UNL1        0.2204
     16 N          60.7050   89.7752    9.0325 N.ar    1  UNL1       -0.2097
     17 C          59.7639   88.9961    8.1622 C.ar    1  UNL1        0.1330
     18 C          59.8662   87.5010    8.0971 C.ar    1  UNL1        0.1784
     19 F          58.9251   86.7220    7.2267 F       1  UNL1       -0.2009
     20 C          60.9097   86.7849    8.9023 C.ar    1  UNL1        0.1330
     21 N          61.8508   87.5640    9.7726 N.ar    1  UNL1       -0.2097
     22 C          63.9845   89.3154   13.4837 C.ar    1  UNL1        0.0397
     23 C          63.8436   87.8797   13.0728 C.ar    1  UNL1        0.0057
     24 C          63.7389   87.0494   14.3177 C.ar    1  UNL1        0.0068
     25 C          63.8151   87.9720   15.4980 C.ar    1  UNL1        0.0352
     26 S          63.9669   89.3725   14.9825 S.2     1  UNL1       -0.0878
     27 C          63.5849   85.5584   14.3727 C.ar    1  UNL1        0.0012
     28 C          63.4115   84.8704   15.6943 C.ar    1  UNL1        0.0001
     29 C          63.2576   83.3794   15.7493 C.ar    1  UNL1        0.0007
     30 C          63.2771   82.5762   14.4826 C.ar    1  UNL1        0.0103
     31 C          63.4505   83.2641   13.1610 C.ar    1  UNL1        0.0684
     32 C          63.6044   84.7551   13.1060 C.ar    1  UNL1        0.0103
     33 C          63.4700   82.4609   11.8943 C.1     1  UNL1        0.1004
     34 N          63.4894   81.6578   10.6275 N.1     1  UNL1       -0.1908
@<TRIPOS>BOND
     1     1     2    1
     2     2     3    1
     3     3     4    2
     4     3     5    1
     5     5     6    1
     6     6    22    1
     7    22    23   ar
     8    23    24   ar
     9    24    27    1
    10    27    28   ar
    11    28    29   ar
    12    29    30   ar
    13    30    31   ar
    14    31    33    1
    15    33    34    3
    16    31    32   ar
    17    24    25   ar
    18    25    26   ar
    19     6     7    1
    20     7     8    1
    21     8    15    1
    22    15    16   ar
    23    16    17   ar
    24    17    18   ar
    25    18    19    1
    26    18    20   ar
    27    20    21   ar
    28     8     9    1
    29    10     9    1
    30    10    11    1
    31    11    12    2
    32    11     2   am
    33    10     6    1
    34    26    22   ar
    35    21    15   ar
    36    32    27   ar
    37     4    13    1
    38     5    14    1
@<TRIPOS>MOLECULE
*****
 34 38 0 0 0
SMALL
GASTEIGER

@<TRIPOS>ATOM
      1 C          59.4973   88.1904    7.6556 C.3     1  UNL1        0.2159
      2 N          60.3853   88.1773    8.8645 N.am    1  UNL1       -0.1449
      3 C          60.7785   86.8730    9.4922 C.2     1  UNL1        0.3728
      4 N          60.2836   85.5816    8.9111 N.2     1  UNL1       -0.1329
      5 N          61.6665   86.8599   10.7011 N.pl3   1  UNL1       -0.2247
      6 C          62.1614   88.1512   11.2821 C.3     1  UNL1        0.1559
      7 C          63.0422   88.4499   12.4589 C.3     1  UNL1        0.1327
      8 N          63.1934   89.9390   12.5585 N.pl3   1  UNL1       -0.2740
      9 C          62.4060   90.5605   11.4432 C.3     1  UNL1        0.1079
     10 C          61.7682   89.4555   10.6544 C.3     1  UNL1        0.1498
     11 C          60.8802   89.4686    9.4456 C.2     1  UNL1        0.2919
     12 O          60.4870   90.7730    8.8178 O.2     1  UNL1       -0.2563
     13 H          59.7008   85.5902    8.1177 H       1  UNL1        0.3058
     14 H          61.9246   86.0038   11.1131 H       1  UNL1        0.2454
     15 C          63.9918   90.6770   13.5919 C.ar    1  UNL1        0.2204
     16 N          63.4623   90.8191   14.9881 N.ar    1  UNL1       -0.2097
     17 C          64.2608   91.5571   16.0215 C.ar    1  UNL1        0.1330
     18 C          65.5886   92.1530   15.6587 C.ar    1  UNL1        0.1784
     19 F          66.3870   92.8910   16.6921 F       1  UNL1       -0.2009
     20 C          66.1181   92.0109   14.2624 C.ar    1  UNL1        0.1330
     21 N          65.3196   91.2729   13.2291 N.ar    1  UNL1       -0.2097
     22 C          62.6358   86.9311   12.0144 C.ar    1  UNL1        0.0397
     23 C          62.1608   85.5264   11.7878 C.ar    1  UNL1        0.0057
     24 C          62.9000   84.6287   12.7353 C.ar    1  UNL1        0.0068
     25 C          63.8319   85.4784   13.5474 C.ar    1  UNL1        0.0352
     26 S          63.6685   86.9014   13.1018 S.2     1  UNL1       -0.0878
     27 C          62.7361   83.1421   12.8504 C.ar    1  UNL1        0.0012
     28 C          62.4075   82.5242   14.1771 C.ar    1  UNL1        0.0001
     29 C          62.2436   81.0377   14.2922 C.ar    1  UNL1        0.0007
     30 C          62.4084   80.1689   13.0806 C.ar    1  UNL1        0.0103
     31 C          62.7371   80.7868   11.7539 C.ar    1  UNL1        0.0684
     32 C          62.9010   82.2733   11.6388 C.ar    1  UNL1        0.0103
     33 C          62.9020   79.9180   10.5422 C.1     1  UNL1        0.1004
     34 N          63.0668   79.0492    9.3305 N.1     1  UNL1       -0.1908
@<TRIPOS>BOND
     1     1     2    1
     2     2     3    1
     3     3     4    2
     4     3     5    1
     5     5     6    1
     6     6    22    1
     7    22    23   ar
     8    23    24   ar
     9    24    27    1
    10    27    28   ar
    11    28    29   ar
    12    29    30   ar
    13    30    31   ar
    14    31    33    1
    15    33    34    3
    16    31    32   ar
    17    24    25   ar
    18    25    26   ar
    19     6     7    1
    20     7     8    1
    21     8    15    1
    22    15    16   ar
    23    16    17   ar
    24    17    18   ar
    25    18    19    1
    26    18    20   ar
    27    20    21   ar
    28     8     9    1
    29    10     9    1
    30    10    11    1
    31    11    12    2
    32    11     2   am
    33    10     6    1
    34    26    22   ar
    35    21    15   ar
    36    32    27   ar
    37     4    13    1
    38     5    14    1
@<TRIPOS>MOLECULE
*****
 34 38 0 0 0
SMALL
GASTEIGER

@<TRIPOS>ATOM
      1 C          58.3689   88.2546    6.7111 C.3     1  UNL1        0.2159
      2 N          59.4305   88.0268    7.7461 N.am    1  UNL1       -0.1449
      3 C          60.0044   86.6550    7.9425 C.2     1  UNL1        0.3728
      4 N          59.5168   85.5108    7.1038 N.2     1  UNL1       -0.1329
      5 N          61.0660   86.4271    8.9775 N.pl3   1  UNL1       -0.2247
      6 C          61.5536   87.5712    9.8161 C.3     1  UNL1        0.1559
      7 C          62.5816   87.6503   10.9056 C.3     1  UNL1        0.1327
      8 N          62.6430   89.0711   11.3825 N.pl3   1  UNL1       -0.2740
      9 C          61.6529   89.8701   10.5879 C.3     1  UNL1        0.1079
     10 C          60.9796   88.9431    9.6197 C.3     1  UNL1        0.1498
     11 C          59.9181   89.1708    8.5848 C.2     1  UNL1        0.2919
     12 O          59.3441   90.5427    8.3884 O.2     1  UNL1       -0.2563
     13 H          58.8200   85.6603    6.4245 H       1  UNL1        0.3058
     14 H          61.4427   85.5267    9.1063 H       1  UNL1        0.2454
     15 C          63.5374   89.6002   12.4643 C.ar    1  UNL1        0.2204
     16 N          63.8389   88.7568   13.6675 N.ar    1  UNL1       -0.2097
     17 C          64.7333   89.2859   14.7492 C.ar    1  UNL1        0.1330
     18 C          65.3262   90.6583   14.6277 C.ar    1  UNL1        0.1784
     19 F          66.2207   91.1874   15.7095 F       1  UNL1       -0.2009
     20 C          65.0247   91.5018   13.4245 C.ar    1  UNL1        0.1330
     21 N          64.1303   90.9726   12.3428 N.ar    1  UNL1       -0.2097
     22 C          62.2179   86.2621   10.1244 C.ar    1  UNL1        0.0397
     23 C          61.9604   85.4046   11.3279 C.ar    1  UNL1        0.0057
     24 C          62.8397   84.1932   11.2306 C.ar    1  UNL1        0.0068
     25 C          63.6406   84.3020    9.9670 C.ar    1  UNL1        0.0352
     26 S          63.2563   85.5807    9.2833 S.2     1  UNL1       -0.0878
     27 C          62.9063   83.0702   12.2227 C.ar    1  UNL1        0.0012
     28 C          64.2339   82.6144   12.7516 C.ar    1  UNL1        0.0001
     29 C          64.3005   81.4914   13.7437 C.ar    1  UNL1        0.0007
     30 C          63.0395   80.8240   14.2070 C.ar    1  UNL1        0.0103
     31 C          61.7120   81.2798   13.6780 C.ar    1  UNL1        0.0684
     32 C          61.6453   82.4028   12.6859 C.ar    1  UNL1        0.0103
     33 C          60.4509   80.6124   14.1412 C.1     1  UNL1        0.1004
     34 N          59.1899   79.9451   14.6043 N.1     1  UNL1       -0.1908
@<TRIPOS>BOND
     1     1     2    1
     2     2     3    1
     3     3     4    2
     4     3     5    1
     5     5     6    1
     6     6    22    1
     7    22    23   ar
     8    23    24   ar
     9    24    27    1
    10    27    28   ar
    11    28    29   ar
    12    29    30   ar
    13    30    31   ar
    14    31    33    1
    15    33    34    3
    16    31    32   ar
    17    24    25   ar
    18    25    26   ar
    19     6     7    1
    20     7     8    1
    21     8    15    1
    22    15    16   ar
    23    16    17   ar
    24    17    18   ar
    25    18    19    1
    26    18    20   ar
    27    20    21   ar
    28     8     9    1
    29    10     9    1
    30    10    11    1
    31    11    12    2
    32    11     2   am
    33    10     6    1
    34    26    22   ar
    35    21    15   ar
    36    32    27   ar
    37     4    13    1
    38     5    14    1
@<TRIPOS>MOLECULE
*****
 34 38 0 0 0
SMALL
GASTEIGER

@<TRIPOS>ATOM
      1 C          62.7276   78.1715   11.8695 C.3     1  UNL1        0.2159
      2 N          62.7691   79.6592   12.0577 N.am    1  UNL1       -0.1449
      3 C          62.7439   80.5672   10.8641 C.2     1  UNL1        0.3728
      4 N          62.6772   79.9876    9.4821 N.2     1  UNL1       -0.1329
      5 N          62.7853   82.0548   11.0523 N.pl3   1  UNL1       -0.2247
      6 C          62.8520   82.6343   12.4343 C.3     1  UNL1        0.1559
      7 C          62.9035   84.0499   12.9276 C.3     1  UNL1        0.1327
      8 N          62.9606   84.0167   14.4261 N.pl3   1  UNL1       -0.2740
      9 C          62.9443   82.5806   14.8590 C.3     1  UNL1        0.1079
     10 C          62.8772   81.7262   13.6279 C.3     1  UNL1        0.1498
     11 C          62.8357   80.2386   13.4396 C.2     1  UNL1        0.2919
     12 O          62.8609   79.3306   14.6333 O.2     1  UNL1       -0.2563
     13 H          62.6500   79.0113    9.3585 H       1  UNL1        0.3058
     14 H          62.7688   82.6508   10.2689 H       1  UNL1        0.2454
     15 C          63.0230   85.2101   15.3327 C.ar    1  UNL1        0.2204
     16 N          62.3039   85.1905   16.6489 N.ar    1  UNL1       -0.2097
     17 C          62.3664   86.3840   17.5555 C.ar    1  UNL1        0.1330
     18 C          63.1479   87.5970   17.1458 C.ar    1  UNL1        0.1784
     19 F          63.2103   88.7904   18.0524 F       1  UNL1       -0.2009
     20 C          63.8670   87.6166   15.8296 C.ar    1  UNL1        0.1330
     21 N          63.8045   86.4231   14.9230 N.ar    1  UNL1       -0.2097
     22 C          62.8334   83.6620   11.3419 C.ar    1  UNL1        0.0397
     23 C          62.1121   84.9766   11.3803 C.ar    1  UNL1        0.0057
     24 C          62.3659   85.6827   10.0814 C.ar    1  UNL1        0.0068
     25 C          63.2441   84.8045    9.2403 C.ar    1  UNL1        0.0352
     26 S          63.5330   83.5557   10.0193 S.2     1  UNL1       -0.0878
     27 C          61.8347   87.0304    9.6920 C.ar    1  UNL1        0.0012
     28 C          60.5491   87.1374    8.9268 C.ar    1  UNL1        0.0001
     29 C          60.0179   88.4851    8.5374 C.ar    1  UNL1        0.0007
     30 C          60.7724   89.7258    8.9133 C.ar    1  UNL1        0.0103
     31 C          62.0580   89.6188    9.6785 C.ar    1  UNL1        0.0684
     32 C          62.5892   88.2711   10.0679 C.ar    1  UNL1        0.0103
     33 C          62.8126   90.8595   10.0545 C.1     1  UNL1        0.1004
     34 N          63.5672   92.1002   10.4304 N.1     1  UNL1       -0.1908
@<TRIPOS>BOND
     1     1     2    1
     2     2     3    1
     3     3     4    2
     4     3     5    1
     5     5     6    1
     6     6    22    1
     7    22    23   ar
     8    23    24   ar
     9    24    27    1
    10    27    28   ar
    11    28    29   ar
    12    29    30   ar
    13    30    31   ar
    14    31    33    1
    15    33    34    3
    16    31    32   ar
    17    24    25   ar
    18    25    26   ar
    19     6     7    1
    20     7     8    1
    21     8    15    1
    22    15    16   ar
    23    16    17   ar
    24    17    18   ar
    25    18    19    1
    26    18    20   ar
    27    20    21   ar
    28     8     9    1
    29    10     9    1
    30    10    11    1
    31    11    12    2
    32    11     2   am
    33    10     6    1
    34    26    22   ar
    35    21    15   ar
    36    32    27   ar
    37     4    13    1
    38     5    14    1
@<TRIPOS>MOLECULE
*****
 34 38 0 0 0
SMALL
GASTEIGER

@<TRIPOS>ATOM
      1 C          63.9315   81.0170   14.1255 C.3     1  UNL1        0.2159
      2 N          63.6282   82.4125   13.6666 N.am    1  UNL1       -0.1449
      3 C          64.1415   83.5866   14.4462 C.2     1  UNL1        0.3728
      4 N          64.9582   83.3653   15.6848 N.2     1  UNL1       -0.1329
      5 N          63.8381   84.9822   13.9872 N.pl3   1  UNL1       -0.2247
      6 C          63.0214   85.2034   12.7487 C.3     1  UNL1        0.1559
      7 C          62.5651   86.4540   12.0575 C.3     1  UNL1        0.1327
      8 N          61.7697   86.0528   10.8507 N.pl3   1  UNL1       -0.2740
      9 C          61.7345   84.5542   10.7960 C.3     1  UNL1        0.1079
     10 C          62.5081   84.0292   11.9691 C.3     1  UNL1        0.1498
     11 C          62.8115   82.6338   12.4280 C.2     1  UNL1        0.2919
     12 O          62.2982   81.4596   11.6484 O.2     1  UNL1       -0.2563
     13 H          65.1573   82.4495   15.9860 H       1  UNL1        0.3058
     14 H          64.1750   85.7528   14.4989 H       1  UNL1        0.2454
     15 C          61.1230   86.9862    9.8707 C.ar    1  UNL1        0.2204
     16 N          60.3103   86.4369    8.7359 N.ar    1  UNL1       -0.2097
     17 C          59.6636   87.3704    7.7558 C.ar    1  UNL1        0.1330
     18 C          59.8297   88.8531    7.9105 C.ar    1  UNL1        0.1784
     19 F          59.1830   89.7865    6.9304 F       1  UNL1       -0.2009
     20 C          60.6424   89.4024    9.0453 C.ar    1  UNL1        0.1330
     21 N          61.2891   88.4689   10.0253 N.ar    1  UNL1       -0.2097
     22 C          63.4644   86.4687   13.4216 C.ar    1  UNL1        0.0397
     23 C          63.8295   87.7513   12.7349 C.ar    1  UNL1        0.0057
     24 C          64.2107   88.7489   13.7884 C.ar    1  UNL1        0.0068
     25 C          64.0812   88.0827   15.1261 C.ar    1  UNL1        0.0352
     26 S          63.6199   86.6735   14.8994 S.2     1  UNL1       -0.0878
     27 C          64.6452   90.1640   13.5465 C.ar    1  UNL1        0.0012
     28 C          64.1506   90.9046   12.3395 C.ar    1  UNL1        0.0001
     29 C          64.5851   92.3198   12.0977 C.ar    1  UNL1        0.0007
     30 C          65.5142   92.9945   13.0629 C.ar    1  UNL1        0.0103
     31 C          66.0087   92.2539   14.2699 C.ar    1  UNL1        0.0684
     32 C          65.5742   90.8387   14.5118 C.ar    1  UNL1        0.0103
     33 C          66.9378   92.9285   15.2352 C.1     1  UNL1        0.1004
     34 N          67.8669   93.6030   16.2006 N.1     1  UNL1       -0.1908
@<TRIPOS>BOND
     1     1     2    1
     2     2     3    1
     3     3     4    2
     4     3     5    1
     5     5     6    1
     6     6    22    1
     7    22    23   ar
     8    23    24   ar
     9    24    27    1
    10    27    28   ar
    11    28    29   ar
    12    29    30   ar
    13    30    31   ar
    14    31    33    1
    15    33    34    3
    16    31    32   ar
    17    24    25   ar
    18    25    26   ar
    19     6     7    1
    20     7     8    1
    21     8    15    1
    22    15    16   ar
    23    16    17   ar
    24    17    18   ar
    25    18    19    1
    26    18    20   ar
    27    20    21   ar
    28     8     9    1
    29    10     9    1
    30    10    11    1
    31    11    12    2
    32    11     2   am
    33    10     6    1
    34    26    22   ar
    35    21    15   ar
    36    32    27   ar
    37     4    13    1
    38     5    14    1
@<TRIPOS>MOLECULE
*****
 34 38 0 0 0
SMALL
GASTEIGER

@<TRIPOS>ATOM
      1 C          63.8237   91.7160   14.5119 C.3     1  UNL1        0.2159
      2 N          63.6101   90.3896   13.8448 N.am    1  UNL1       -0.1449
      3 C          63.8519   89.1198   14.6056 C.2     1  UNL1        0.3728
      4 N          64.3075   89.1762   16.0337 N.2     1  UNL1       -0.1329
      5 N          63.6383   87.7933   13.9384 N.pl3   1  UNL1       -0.2247
      6 C          63.1828   87.7369   12.5104 C.3     1  UNL1        0.1559
      7 C          62.8901   86.5851   11.5951 C.3     1  UNL1        0.1327
      8 N          62.4674   87.1432   10.2685 N.pl3   1  UNL1       -0.2740
      9 C          62.4988   88.6398   10.3639 C.3     1  UNL1        0.1079
     10 C          62.9410   89.0067   11.7495 C.3     1  UNL1        0.1498
     11 C          63.1546   90.3331   12.4167 C.2     1  UNL1        0.2919
     12 O          62.9128   91.6030   11.6559 O.2     1  UNL1       -0.2563
     13 H          64.4477   90.0468   16.4716 H       1  UNL1        0.3058
     14 H          63.7970   86.9599   14.4378 H       1  UNL1        0.2454
     15 C          62.0810   86.3448    9.0588 C.ar    1  UNL1        0.2204
     16 N          60.6735   86.3981    8.5432 N.ar    1  UNL1       -0.2097
     17 C          60.2872   85.5997    7.3334 C.ar    1  UNL1        0.1330
     18 C          61.3085   84.7480    6.6394 C.ar    1  UNL1        0.1784
     19 F          60.9221   83.9497    5.4297 F       1  UNL1       -0.2009
     20 C          62.7160   84.6947    7.1551 C.ar    1  UNL1        0.1330
     21 N          63.1023   85.4931    8.3648 N.ar    1  UNL1       -0.2097
     22 C          63.3829   86.3905   13.1407 C.ar    1  UNL1        0.0397
     23 C          62.7345   85.1091   12.7077 C.ar    1  UNL1        0.0057
     24 C          63.2175   84.0158   13.6141 C.ar    1  UNL1        0.0068
     25 C          64.1645   84.6216   14.6073 C.ar    1  UNL1        0.0352
     26 S          64.2667   86.0893   14.3147 S.2     1  UNL1       -0.0878
     27 C          62.8229   82.5706   13.5403 C.ar    1  UNL1        0.0012
     28 C          63.7890   81.5557   13.0050 C.ar    1  UNL1        0.0001
     29 C          63.3943   80.1104   12.9312 C.ar    1  UNL1        0.0007
     30 C          62.0335   79.6800   13.3927 C.ar    1  UNL1        0.0103
     31 C          61.0674   80.6949   13.9280 C.ar    1  UNL1        0.0684
     32 C          61.4621   82.1402   14.0018 C.ar    1  UNL1        0.0103
     33 C          59.7066   80.2646   14.3896 C.1     1  UNL1        0.1004
     34 N          58.3458   79.8342   14.8512 N.1     1  UNL1       -0.1908
@<TRIPOS>BOND
     1     1     2    1
     2     2     3    1
     3     3     4    2
     4     3     5    1
     5     5     6    1
     6     6    22    1
     7    22    23   ar
     8    23    24   ar
     9    24    27    1
    10    27    28   ar
    11    28    29   ar
    12    29    30   ar
    13    30    31   ar
    14    31    33    1
    15    33    34    3
    16    31    32   ar
    17    24    25   ar
    18    25    26   ar
    19     6     7    1
    20     7     8    1
    21     8    15    1
    22    15    16   ar
    23    16    17   ar
    24    17    18   ar
    25    18    19    1
    26    18    20   ar
    27    20    21   ar
    28     8     9    1
    29    10     9    1
    30    10    11    1
    31    11    12    2
    32    11     2   am
    33    10     6    1
    34    26    22   ar
    35    21    15   ar
    36    32    27   ar
    37     4    13    1
    38     5    14    1
@<TRIPOS>MOLECULE
*****
 34 38 0 0 0
SMALL
GASTEIGER

@<TRIPOS>ATOM
      1 C          63.8751   91.7097   14.3306 C.3     1  UNL1        0.2159
      2 N          63.6279   90.3850   13.6716 N.am    1  UNL1       -0.1449
      3 C          63.8270   89.1145   14.4436 C.2     1  UNL1        0.3728
      4 N          64.2732   89.1686   15.8748 N.2     1  UNL1       -0.1329
      5 N          63.5798   87.7898   13.7846 N.pl3   1  UNL1       -0.2247
      6 C          63.1337   87.7357   12.3535 C.3     1  UNL1        0.1559
      7 C          62.8145   86.5861   11.4445 C.3     1  UNL1        0.1327
      8 N          62.4182   87.1461   10.1106 N.pl3   1  UNL1       -0.2740
      9 C          62.4925   88.6419   10.1952 C.3     1  UNL1        0.1079
     10 C          62.9347   89.0063   11.5815 C.3     1  UNL1        0.1498
     11 C          63.1818   90.3309   12.2405 C.2     1  UNL1        0.2919
     12 O          62.9828   91.6015   11.4684 O.2     1  UNL1       -0.2563
     13 H          64.4354   90.0380   16.3073 H       1  UNL1        0.3058
     14 H          63.7105   86.9559   14.2914 H       1  UNL1        0.2454
     15 C          62.0180   86.3501    8.9038 C.ar    1  UNL1        0.2204
     16 N          63.0339   85.5091    8.1893 N.ar    1  UNL1       -0.2097
     17 C          62.6335   84.7131    6.9826 C.ar    1  UNL1        0.1330
     18 C          61.2173   84.7582    6.4904 C.ar    1  UNL1        0.1784
     19 F          60.8170   83.9622    5.2836 F       1  UNL1       -0.2009
     20 C          60.2014   85.5992    7.2049 C.ar    1  UNL1        0.1330
     21 N          60.6018   86.3952    8.4116 N.ar    1  UNL1       -0.2097
     22 C          63.2898   86.3890   12.9953 C.ar    1  UNL1        0.0397
     23 C          62.7155   85.0991   12.4890 C.ar    1  UNL1        0.0057
     24 C          63.1184   84.0086   13.4368 C.ar    1  UNL1        0.0068
     25 C          63.9418   84.6244   14.5289 C.ar    1  UNL1        0.0352
     26 S          64.0477   86.0956   14.2560 S.2     1  UNL1       -0.0878
     27 C          62.7607   82.5570   13.3141 C.ar    1  UNL1        0.0012
     28 C          62.1442   81.8357   14.4757 C.ar    1  UNL1        0.0001
     29 C          61.7865   80.3841   14.3530 C.ar    1  UNL1        0.0007
     30 C          62.0455   79.6539   13.0686 C.ar    1  UNL1        0.0103
     31 C          62.6620   80.3752   11.9070 C.ar    1  UNL1        0.0684
     32 C          63.0197   81.8268   12.0297 C.ar    1  UNL1        0.0103
     33 C          62.9210   79.6450   10.6225 C.1     1  UNL1        0.1004
     34 N          63.1800   78.9149    9.3380 N.1     1  UNL1       -0.1908
@<TRIPOS>BOND
     1     1     2    1
     2     2     3    1
     3     3     4    2
     4     3     5    1
     5     5     6    1
     6     6    22    1
     7    22    23   ar
     8    23    24   ar
     9    24    27    1
    10    27    28   ar
    11    28    29   ar
    12    29    30   ar
    13    30    31   ar
    14    31    33    1
    15    33    34    3
    16    31    32   ar
    17    24    25   ar
    18    25    26   ar
    19     6     7    1
    20     7     8    1
    21     8    15    1
    22    15    16   ar
    23    16    17   ar
    24    17    18   ar
    25    18    19    1
    26    18    20   ar
    27    20    21   ar
    28     8     9    1
    29    10     9    1
    30    10    11    1
    31    11    12    2
    32    11     2   am
    33    10     6    1
    34    26    22   ar
    35    21    15   ar
    36    32    27   ar
    37     4    13    1
    38     5    14    1
@<TRIPOS>MOLECULE
*****
 34 38 0 0 0
SMALL
GASTEIGER

@<TRIPOS>ATOM
      1 C          55.6094   95.2434   -3.8024 C.3     1  UNL1        0.2159
      2 N          57.0858   95.0216   -3.6568 N.am    1  UNL1       -0.1449
      3 C          57.6927   94.8854   -2.2919 C.2     1  UNL1        0.3728
      4 N          56.8233   94.9710   -1.0725 N.2     1  UNL1       -0.1329
      5 N          59.1691   94.6636   -2.1463 N.pl3   1  UNL1       -0.2247
      6 C          60.0385   94.5781   -3.3656 C.3     1  UNL1        0.1559
      7 C          61.5141   94.3672   -3.5334 C.3     1  UNL1        0.1327
      8 N          61.8191   94.3731   -5.0020 N.pl3   1  UNL1       -0.2740
      9 C          60.5320   94.5876   -5.7419 C.3     1  UNL1        0.1079
     10 C          59.4315   94.7143   -4.7305 C.3     1  UNL1        0.1498
     11 C          57.9552   94.9361   -4.8761 C.2     1  UNL1        0.2919
     12 O          57.3482   95.0723   -6.2411 O.2     1  UNL1       -0.2563
     13 H          55.8543   95.1165   -1.1680 H       1  UNL1        0.3058
     14 H          59.5675   94.5742   -1.2504 H       1  UNL1        0.2454
     15 C          63.1734   94.1957   -5.6220 C.ar    1  UNL1        0.2204
     16 N          64.1821   95.3036   -5.5503 N.ar    1  UNL1       -0.2097
     17 C          65.5364   95.1261   -6.1703 C.ar    1  UNL1        0.1330
     18 C          65.8821   93.8407   -6.8619 C.ar    1  UNL1        0.1784
     19 F          67.2364   93.6633   -7.4819 F       1  UNL1       -0.2009
     20 C          64.8734   92.7328   -6.9336 C.ar    1  UNL1        0.1330
     21 N          63.5191   92.9104   -6.3136 N.ar    1  UNL1       -0.2097
     22 C          60.7836   94.4241   -2.0729 C.ar    1  UNL1        0.0397
     23 C          60.4047   93.5177   -0.9394 C.ar    1  UNL1        0.0057
     24 C          61.4255   93.6829    0.1473 C.ar    1  UNL1        0.0068
     25 C          62.4353   94.6913   -0.3147 C.ar    1  UNL1        0.0352
     26 S          62.0386   95.1493   -1.6869 S.2     1  UNL1       -0.0878
     27 C          61.4348   92.9656    1.4646 C.ar    1  UNL1        0.0012
     28 C          62.7047   92.3527    1.9759 C.ar    1  UNL1        0.0001
     29 C          62.7141   91.6354    3.2933 C.ar    1  UNL1        0.0007
     30 C          61.4534   91.5310    4.0994 C.ar    1  UNL1        0.0103
     31 C          60.1834   92.1439    3.5880 C.ar    1  UNL1        0.0684
     32 C          60.1741   92.8612    2.2707 C.ar    1  UNL1        0.0103
     33 C          58.9226   92.0396    4.3941 C.1     1  UNL1        0.1004
     34 N          57.6619   91.9352    5.2000 N.1     1  UNL1       -0.1908
@<TRIPOS>BOND
     1     1     2    1
     2     2     3    1
     3     3     4    2
     4     3     5    1
     5     5     6    1
     6     6    22    1
     7    22    23   ar
     8    23    24   ar
     9    24    27    1
    10    27    28   ar
    11    28    29   ar
    12    29    30   ar
    13    30    31   ar
    14    31    33    1
    15    33    34    3
    16    31    32   ar
    17    24    25   ar
    18    25    26   ar
    19     6     7    1
    20     7     8    1
    21     8    15    1
    22    15    16   ar
    23    16    17   ar
    24    17    18   ar
    25    18    19    1
    26    18    20   ar
    27    20    21   ar
    28     8     9    1
    29    10     9    1
    30    10    11    1
    31    11    12    2
    32    11     2   am
    33    10     6    1
    34    26    22   ar
    35    21    15   ar
    36    32    27   ar
    37     4    13    1
    38     5    14    1
