@<TRIPOS>MOLECULE
*****
 42 45 0 0 0
SMALL
GASTEIGER

@<TRIPOS>ATOM
      1 N          61.9651   89.2272   12.3365 N.3     1  UNL1       -0.2947
      2 H          62.0114   88.6429   13.1713 H       1  UNL1        0.1233
      3 C          62.5129   90.5707   12.7173 C.3     1  UNL1        0.0888
      4 C          63.7953   90.6663   13.4897 C.3     1  UNL1        0.0948
      5 N          65.0664   91.0446   12.7889 N.am    1  UNL1       -0.2706
      6 C          65.9296   92.1402   13.3409 C.2     1  UNL1        0.4020
      7 O          65.5217   92.8574   14.5936 O.2     1  UNL1       -0.2264
      8 H          65.3341   90.5739   11.9667 H       1  UNL1        0.1527
      9 O          67.2008   92.5185   12.6402 O.3     1  UNL1       -0.4274
     10 C          67.2490   92.5542   11.1414 C.3     1  UNL1        0.2621
     11 C          67.1004   93.8593   10.4171 C.ar    1  UNL1        0.1323
     12 N          68.0097   94.3807    9.3441 N.ar    1  UNL1       -0.2374
     13 C          67.4877   95.7158    8.9024 C.ar    1  UNL1        0.1062
     14 C          66.2557   96.0195    9.7024 C.ar    1  UNL1        0.0573
     15 S          66.0164   94.8722   10.6385 S.2     1  UNL1       -0.0666
     16 C          63.8064   90.3835   14.9627 C.3     1  UNL1        0.0474
     17 C          63.7356   88.9685   15.4554 C.ar    1  UNL1       -0.0205
     18 C          64.3667   87.8648   14.6596 C.ar    1  UNL1       -0.0042
     19 C          64.2959   86.4498   15.1523 C.ar    1  UNL1       -0.0003
     20 C          63.5938   86.1386   16.4408 C.ar    1  UNL1       -0.0000
     21 C          62.9627   87.2423   17.2366 C.ar    1  UNL1       -0.0003
     22 C          63.0335   88.6573   16.7439 C.ar    1  UNL1       -0.0042
     23 C          62.6008   88.4457   11.2251 C.3     1  UNL1        0.0888
     24 C          61.8612   87.3044   10.5923 C.3     1  UNL1        0.0948
     25 O          59.9053   89.4129    9.7388 O.2     1  UNL1       -0.2264
     26 C          60.4537   88.4467    8.7311 C.2     1  UNL1        0.4020
     27 N          61.4316   87.3924    9.1578 N.am    1  UNL1       -0.2706
     28 H          61.7916   86.7582    8.4964 H       1  UNL1        0.1527
     29 O          60.0242   88.5347    7.2966 O.3     1  UNL1       -0.4291
     30 C          58.7960   89.3127    6.9278 C.3     1  UNL1        0.2447
     31 C          58.8764   90.3947    5.8920 C.ar    1  UNL1        0.0714
     32 C          57.7146   91.1343    5.2976 C.ar    1  UNL1        0.1053
     33 N          58.2530   92.1238    4.3070 N.ar    1  UNL1       -0.2350
     34 C          59.7474   91.9957    4.2892 C.ar    1  UNL1        0.1343
     35 S          60.1327   90.9271    5.2688 S.2     1  UNL1       -0.0652
     36 C          61.5511   86.0751   11.3940 C.3     1  UNL1        0.0474
     37 C          62.5202   84.9305   11.4170 C.ar    1  UNL1       -0.0205
     38 C          63.1459   84.4518   10.1405 C.ar    1  UNL1       -0.0042
     39 C          64.1150   83.3071   10.1635 C.ar    1  UNL1       -0.0003
     40 C          64.4584   82.6411   11.4629 C.ar    1  UNL1       -0.0000
     41 C          63.8326   83.1197   12.7393 C.ar    1  UNL1       -0.0003
     42 C          62.8635   84.2644   12.7163 C.ar    1  UNL1       -0.0042
@<TRIPOS>BOND
     1    25    26    2
     2    26    27   am
     3    27    24    1
     4    24    23    1
     5    23     1    1
     6     1     3    1
     7     4     3    1
     8     4    16    1
     9    16    17    1
    10    17    18   ar
    11    18    19   ar
    12    19    20   ar
    13    20    21   ar
    14    21    22   ar
    15     4     5    1
    16     5     6   am
    17     6     7    2
    18     6     9    1
    19     9    10    1
    20    10    11    1
    21    11    12   ar
    22    12    13   ar
    23    13    14   ar
    24    14    15   ar
    25    24    36    1
    26    36    37    1
    27    37    38   ar
    28    38    39   ar
    29    39    40   ar
    30    40    41   ar
    31    41    42   ar
    32    26    29    1
    33    29    30    1
    34    30    31    1
    35    31    32   ar
    36    32    33   ar
    37    33    34   ar
    38    34    35   ar
    39    22    17   ar
    40    15    11   ar
    41    42    37   ar
    42    35    31   ar
    43    27    28    1
    44     1     2    1
    45     5     8    1
@<TRIPOS>MOLECULE
*****
 42 45 0 0 0
SMALL
GASTEIGER

@<TRIPOS>ATOM
      1 N          61.6519   89.8186   12.7510 N.3     1  UNL1       -0.2947
      2 H          61.5799   88.9724   13.3159 H       1  UNL1        0.1233
      3 C          63.1118   90.0412   12.4886 C.3     1  UNL1        0.0888
      4 C          63.9093   90.9326   13.3939 C.3     1  UNL1        0.0948
      5 N          64.7090   92.0637   12.8184 N.am    1  UNL1       -0.2706
      6 C          66.1472   92.2390   13.2069 C.2     1  UNL1        0.4020
      7 O          66.7857   91.2834   14.1707 O.2     1  UNL1       -0.2264
      8 H          64.2900   92.6909   12.1858 H       1  UNL1        0.1527
      9 O          66.9469   93.3701   12.6315 O.3     1  UNL1       -0.4274
     10 C          66.2483   94.5347   11.9946 C.3     1  UNL1        0.2621
     11 C          66.6595   95.0009   10.6295 C.ar    1  UNL1        0.1323
     12 N          67.0153   94.1216    9.4676 N.ar    1  UNL1       -0.2374
     13 C          67.3628   95.0055    8.3066 C.ar    1  UNL1        0.1062
     14 C          67.2217   96.4312    8.7510 C.ar    1  UNL1        0.0573
     15 S          66.7870   96.4284   10.1866 S.2     1  UNL1       -0.0666
     16 C          63.9070   90.6929   14.8746 C.3     1  UNL1        0.0474
     17 C          63.7968   89.2952   15.4079 C.ar    1  UNL1       -0.0205
     18 C          63.0106   89.0290   16.6573 C.ar    1  UNL1       -0.0042
     19 C          62.9004   87.6314   17.1906 C.ar    1  UNL1       -0.0003
     20 C          63.5764   86.4999   16.4745 C.ar    1  UNL1       -0.0000
     21 C          64.3626   86.7661   15.2251 C.ar    1  UNL1       -0.0003
     22 C          64.4728   88.1637   14.6919 C.ar    1  UNL1       -0.0042
     23 C          60.7000   89.6554   11.6034 C.3     1  UNL1        0.0888
     24 C          60.6055   88.3400   10.8885 C.3     1  UNL1        0.0948
     25 O          63.1677   87.1346   11.8793 O.2     1  UNL1       -0.2264
     26 C          61.8602   86.4583   12.1671 C.2     1  UNL1        0.4020
     27 N          60.5791   87.0610   11.6717 N.am    1  UNL1       -0.2706
     28 H          59.7209   86.6171   11.8605 H       1  UNL1        0.1527
     29 O          61.8337   85.1793   12.9503 O.3     1  UNL1       -0.4291
     30 C          63.0004   84.2385   12.8898 C.3     1  UNL1        0.2447
     31 C          62.7909   82.7689   13.1052 C.ar    1  UNL1        0.0714
     32 C          62.3821   82.1160   14.3924 C.ar    1  UNL1        0.1053
     33 N          62.2919   80.6377   14.1540 N.ar    1  UNL1       -0.2350
     34 C          62.6449   80.3771   12.7196 C.ar    1  UNL1        0.1343
     35 S          62.9533   81.6942   12.0715 S.2     1  UNL1       -0.0652
     36 C          60.5376   88.3037    9.3905 C.3     1  UNL1        0.0474
     37 C          61.0407   87.1028    8.6458 C.ar    1  UNL1       -0.0205
     38 C          62.4535   86.6377    8.8396 C.ar    1  UNL1       -0.0042
     39 C          62.9566   85.4368    8.0949 C.ar    1  UNL1       -0.0003
     40 C          62.0469   84.7010    7.1563 C.ar    1  UNL1       -0.0000
     41 C          60.6341   85.1661    6.9624 C.ar    1  UNL1       -0.0003
     42 C          60.1310   86.3670    7.7071 C.ar    1  UNL1       -0.0042
@<TRIPOS>BOND
     1    25    26    2
     2    26    27   am
     3    27    24    1
     4    24    23    1
     5    23     1    1
     6     1     3    1
     7     4     3    1
     8     4    16    1
     9    16    17    1
    10    17    18   ar
    11    18    19   ar
    12    19    20   ar
    13    20    21   ar
    14    21    22   ar
    15     4     5    1
    16     5     6   am
    17     6     7    2
    18     6     9    1
    19     9    10    1
    20    10    11    1
    21    11    12   ar
    22    12    13   ar
    23    13    14   ar
    24    14    15   ar
    25    24    36    1
    26    36    37    1
    27    37    38   ar
    28    38    39   ar
    29    39    40   ar
    30    40    41   ar
    31    41    42   ar
    32    26    29    1
    33    29    30    1
    34    30    31    1
    35    31    32   ar
    36    32    33   ar
    37    33    34   ar
    38    34    35   ar
    39    22    17   ar
    40    15    11   ar
    41    42    37   ar
    42    35    31   ar
    43    27    28    1
    44     1     2    1
    45     5     8    1
@<TRIPOS>MOLECULE
*****
 42 45 0 0 0
SMALL
GASTEIGER

@<TRIPOS>ATOM
      1 N          62.4117   89.5319   11.7536 N.3     1  UNL1       -0.2947
      2 H          62.8835   90.1187   11.0656 H       1  UNL1        0.1233
      3 C          62.9625   88.1462   11.5914 C.3     1  UNL1        0.0888
      4 C          62.0383   87.0009   11.3013 C.3     1  UNL1        0.0948
      5 N          62.5666   85.5971   11.2821 N.am    1  UNL1       -0.2706
      6 C          62.9972   84.9755    9.9866 C.2     1  UNL1        0.4020
      7 O          62.8994   85.7575    8.7104 O.2     1  UNL1       -0.2264
      8 H          62.6308   85.0838   12.1197 H       1  UNL1        0.1527
      9 O          63.5255   83.5717    9.9674 O.3     1  UNL1       -0.4274
     10 C          64.2141   83.0129   11.1771 C.3     1  UNL1        0.2621
     11 C          63.4055   82.5355   12.3468 C.ar    1  UNL1        0.1323
     12 N          63.0084   83.3562   13.5379 N.ar    1  UNL1       -0.2374
     13 C          62.2095   82.4815   14.4581 C.ar    1  UNL1        0.1062
     14 C          62.1128   81.1201   13.8356 C.ar    1  UNL1        0.0573
     15 S          62.8520   81.1535   12.5308 S.2     1  UNL1       -0.0666
     16 C          60.5858   87.2593   11.0303 C.3     1  UNL1        0.0474
     17 C          60.1403   87.6706    9.6582 C.ar    1  UNL1       -0.0205
     18 C          60.2860   89.0973    9.2187 C.ar    1  UNL1       -0.0042
     19 C          59.8406   89.5085    7.8467 C.ar    1  UNL1       -0.0003
     20 C          59.2495   88.4931    6.9142 C.ar    1  UNL1       -0.0000
     21 C          59.1038   87.0664    7.3538 C.ar    1  UNL1       -0.0003
     22 C          59.5493   86.6551    8.7258 C.ar    1  UNL1       -0.0042
     23 C          62.5263   90.2348   13.0737 C.3     1  UNL1        0.0888
     24 C          63.8769   90.6043   13.6118 C.3     1  UNL1        0.0948
     25 O          65.5538   92.7969   14.7865 O.2     1  UNL1       -0.2264
     26 C          65.6891   92.4452   13.3347 C.2     1  UNL1        0.4020
     27 N          64.8506   91.3489   12.7473 N.am    1  UNL1       -0.2706
     28 H          64.9394   91.1181   11.7944 H       1  UNL1        0.1527
     29 O          66.6628   93.1899   12.4702 O.3     1  UNL1       -0.4291
     30 C          66.3052   94.5436   11.9321 C.3     1  UNL1        0.2447
     31 C          66.7226   94.9335   10.5451 C.ar    1  UNL1        0.0714
     32 C          67.1554   93.9950    9.4579 C.ar    1  UNL1        0.1053
     33 N          67.4807   94.8120    8.2427 N.ar    1  UNL1       -0.2350
     34 C          67.2489   96.2554    8.5787 C.ar    1  UNL1        0.1343
     35 S          66.7804   96.3305   10.0017 S.2     1  UNL1       -0.0652
     36 C          64.2536   90.2292   15.0144 C.3     1  UNL1        0.0474
     37 C          63.9612   88.8499   15.5262 C.ar    1  UNL1       -0.0205
     38 C          63.1549   88.6697   16.7781 C.ar    1  UNL1       -0.0042
     39 C          62.8625   87.2904   17.2899 C.ar    1  UNL1       -0.0003
     40 C          63.3763   86.0912   16.5497 C.ar    1  UNL1       -0.0000
     41 C          64.1826   86.2714   15.2978 C.ar    1  UNL1       -0.0003
     42 C          64.4750   87.6507   14.7860 C.ar    1  UNL1       -0.0042
@<TRIPOS>BOND
     1    25    26    2
     2    26    27   am
     3    27    24    1
     4    24    23    1
     5    23     1    1
     6     1     3    1
     7     4     3    1
     8     4    16    1
     9    16    17    1
    10    17    18   ar
    11    18    19   ar
    12    19    20   ar
    13    20    21   ar
    14    21    22   ar
    15     4     5    1
    16     5     6   am
    17     6     7    2
    18     6     9    1
    19     9    10    1
    20    10    11    1
    21    11    12   ar
    22    12    13   ar
    23    13    14   ar
    24    14    15   ar
    25    24    36    1
    26    36    37    1
    27    37    38   ar
    28    38    39   ar
    29    39    40   ar
    30    40    41   ar
    31    41    42   ar
    32    26    29    1
    33    29    30    1
    34    30    31    1
    35    31    32   ar
    36    32    33   ar
    37    33    34   ar
    38    34    35   ar
    39    22    17   ar
    40    15    11   ar
    41    42    37   ar
    42    35    31   ar
    43    27    28    1
    44     1     2    1
    45     5     8    1
@<TRIPOS>MOLECULE
*****
 42 45 0 0 0
SMALL
GASTEIGER

@<TRIPOS>ATOM
      1 N          62.7012   88.7362   12.2387 N.3     1  UNL1       -0.2947
      2 H          61.9888   88.1978   12.7316 H       1  UNL1        0.1233
      3 C          62.4170   88.5907   10.7731 C.3     1  UNL1        0.0888
      4 C          61.6169   87.4230   10.2765 C.3     1  UNL1        0.0948
      5 N          61.0500   87.4385    8.8879 N.am    1  UNL1       -0.2706
      6 C          60.1592   88.5648    8.4540 C.2     1  UNL1        0.4020
      7 O          59.8354   89.6754    9.4087 O.2     1  UNL1       -0.2264
      8 H          61.2625   86.7096    8.2612 H       1  UNL1        0.1527
      9 O          59.5923   88.5803    7.0653 O.3     1  UNL1       -0.4274
     10 C          58.6890   89.6984    6.6365 C.3     1  UNL1        0.2621
     11 C          59.1523   90.6827    5.6038 C.ar    1  UNL1        0.1323
     12 N          60.5665   90.8775    5.1432 N.ar    1  UNL1       -0.2374
     13 C          60.5710   91.9603    4.1051 C.ar    1  UNL1        0.1062
     14 C          59.1596   92.4348    3.9242 C.ar    1  UNL1        0.0573
     15 S          58.2828   91.6452    4.8504 S.2     1  UNL1       -0.0666
     16 C          61.3838   86.2399   11.1686 C.3     1  UNL1        0.0474
     17 C          62.3962   85.1346   11.2283 C.ar    1  UNL1       -0.0205
     18 C          62.8253   84.5814   12.5548 C.ar    1  UNL1       -0.0042
     19 C          63.8376   83.4762   12.6145 C.ar    1  UNL1       -0.0003
     20 C          64.4208   82.9240   11.3476 C.ar    1  UNL1       -0.0000
     21 C          63.9916   83.4772   10.0210 C.ar    1  UNL1       -0.0003
     22 C          62.9793   84.5824    9.9613 C.ar    1  UNL1       -0.0042
     23 C          62.7259   90.0984   12.8662 C.3     1  UNL1        0.0888
     24 C          63.9891   90.6144   13.4891 C.3     1  UNL1        0.0948
     25 O          65.6319   92.7388   14.8262 O.2     1  UNL1       -0.2264
     26 C          65.7588   92.5115   13.3490 C.2     1  UNL1        0.4020
     27 N          64.9374   91.4493   12.6804 N.am    1  UNL1       -0.2706
     28 H          65.0206   91.3000   11.7109 H       1  UNL1        0.1527
     29 O          66.7070   93.3463   12.5403 O.3     1  UNL1       -0.4291
     30 C          66.2120   94.5758   11.8380 C.3     1  UNL1        0.2447
     31 C          66.6947   94.8945   10.4540 C.ar    1  UNL1        0.0714
     32 C          67.2275   93.9084    9.4571 C.ar    1  UNL1        0.1053
     33 N          67.5915   94.6598    8.2109 N.ar    1  UNL1       -0.2350
     34 C          67.2837   96.1103    8.4376 C.ar    1  UNL1        0.1343
     35 S          66.7295   96.2553    9.8239 S.2     1  UNL1       -0.0652
     36 C          64.3041   90.2956   14.9205 C.3     1  UNL1        0.0474
     37 C          63.9869   88.9380   15.4739 C.ar    1  UNL1       -0.0205
     38 C          63.1429   88.8092   16.7071 C.ar    1  UNL1       -0.0042
     39 C          62.8257   87.4515   17.2604 C.ar    1  UNL1       -0.0003
     40 C          63.3525   86.2227   16.5805 C.ar    1  UNL1       -0.0000
     41 C          64.1966   86.3515   15.3473 C.ar    1  UNL1       -0.0003
     42 C          64.5138   87.7091   14.7940 C.ar    1  UNL1       -0.0042
@<TRIPOS>BOND
     1    25    26    2
     2    26    27   am
     3    27    24    1
     4    24    23    1
     5    23     1    1
     6     1     3    1
     7     4     3    1
     8     4    16    1
     9    16    17    1
    10    17    18   ar
    11    18    19   ar
    12    19    20   ar
    13    20    21   ar
    14    21    22   ar
    15     4     5    1
    16     5     6   am
    17     6     7    2
    18     6     9    1
    19     9    10    1
    20    10    11    1
    21    11    12   ar
    22    12    13   ar
    23    13    14   ar
    24    14    15   ar
    25    24    36    1
    26    36    37    1
    27    37    38   ar
    28    38    39   ar
    29    39    40   ar
    30    40    41   ar
    31    41    42   ar
    32    26    29    1
    33    29    30    1
    34    30    31    1
    35    31    32   ar
    36    32    33   ar
    37    33    34   ar
    38    34    35   ar
    39    22    17   ar
    40    15    11   ar
    41    42    37   ar
    42    35    31   ar
    43    27    28    1
    44     1     2    1
    45     5     8    1
@<TRIPOS>MOLECULE
*****
 42 45 0 0 0
SMALL
GASTEIGER

@<TRIPOS>ATOM
      1 N          61.7129   89.3898   12.3053 N.3     1  UNL1       -0.2947
      2 H          61.3987   88.4323   12.4634 H       1  UNL1        0.1233
      3 C          63.2125   89.3632   12.3312 C.3     1  UNL1        0.0888
      4 C          63.9527   89.9351   13.5038 C.3     1  UNL1        0.0948
      5 N          64.2423   89.0765   14.6992 N.am    1  UNL1       -0.2706
      6 C          63.2130   88.9233   15.7796 C.2     1  UNL1        0.4020
      7 O          61.8943   89.6287   15.6647 O.2     1  UNL1       -0.2264
      8 H          65.1078   88.6134   14.7746 H       1  UNL1        0.1527
      9 O          63.5026   88.0646   16.9750 O.3     1  UNL1       -0.4274
     10 C          63.0186   86.6454   17.0139 C.3     1  UNL1        0.2621
     11 C          63.5184   85.6545   16.0048 C.ar    1  UNL1        0.1323
     12 N          64.7294   85.8169   15.1346 N.ar    1  UNL1       -0.2374
     13 C          64.8545   84.5900   14.2807 C.ar    1  UNL1        0.1062
     14 C          63.7208   83.6694   14.6231 C.ar    1  UNL1        0.0573
     15 S          62.8951   84.3273   15.6886 S.2     1  UNL1       -0.0666
     16 C          64.4033   91.3656   13.4811 C.3     1  UNL1        0.0474
     17 C          65.6678   91.7649   14.1823 C.ar    1  UNL1       -0.0205
     18 C          65.6179   92.2475   15.6017 C.ar    1  UNL1       -0.0042
     19 C          66.8824   92.6468   16.3029 C.ar    1  UNL1       -0.0003
     20 C          68.1967   92.5634   15.5847 C.ar    1  UNL1       -0.0000
     21 C          68.2465   92.0808   14.1654 C.ar    1  UNL1       -0.0003
     22 C          66.9821   91.6815   13.4642 C.ar    1  UNL1       -0.0042
     23 C          60.9925   89.8864   11.0870 C.3     1  UNL1        0.0888
     24 C          60.5960   88.9249   10.0061 C.3     1  UNL1        0.0948
     25 O          58.6383   87.6245    8.1418 O.2     1  UNL1       -0.2264
     26 C          59.5066   88.7463    7.6543 C.2     1  UNL1        0.4020
     27 N          60.4854   89.3965    8.5865 N.am    1  UNL1       -0.2706
     28 H          61.0553   90.1327    8.2665 H       1  UNL1        0.1527
     29 O          59.3960   89.2178    6.2346 O.3     1  UNL1       -0.4291
     30 C          59.0127   90.6386    5.9440 C.3     1  UNL1        0.2447
     31 C          59.7157   91.3979    4.8581 C.ar    1  UNL1        0.0714
     32 C          61.1637   91.2696    4.4879 C.ar    1  UNL1        0.1053
     33 N          61.4370   92.2113    3.3527 N.ar    1  UNL1       -0.2350
     34 C          60.1581   92.9216    3.0214 C.ar    1  UNL1        0.1343
     35 S          59.0943   92.4189    3.9518 S.2     1  UNL1       -0.0652
     36 C          60.3101   87.4919   10.3448 C.3     1  UNL1        0.0474
     37 C          61.3637   86.4460   10.1304 C.ar    1  UNL1       -0.0205
     38 C          61.9664   86.2564    8.7700 C.ar    1  UNL1       -0.0042
     39 C          63.0200   85.2104    8.5556 C.ar    1  UNL1       -0.0003
     40 C          63.4708   84.3540    9.7016 C.ar    1  UNL1       -0.0000
     41 C          62.8680   84.5436   11.0620 C.ar    1  UNL1       -0.0003
     42 C          61.8145   85.5896   11.2764 C.ar    1  UNL1       -0.0042
@<TRIPOS>BOND
     1    25    26    2
     2    26    27   am
     3    27    24    1
     4    24    23    1
     5    23     1    1
     6     1     3    1
     7     4     3    1
     8     4    16    1
     9    16    17    1
    10    17    18   ar
    11    18    19   ar
    12    19    20   ar
    13    20    21   ar
    14    21    22   ar
    15     4     5    1
    16     5     6   am
    17     6     7    2
    18     6     9    1
    19     9    10    1
    20    10    11    1
    21    11    12   ar
    22    12    13   ar
    23    13    14   ar
    24    14    15   ar
    25    24    36    1
    26    36    37    1
    27    37    38   ar
    28    38    39   ar
    29    39    40   ar
    30    40    41   ar
    31    41    42   ar
    32    26    29    1
    33    29    30    1
    34    30    31    1
    35    31    32   ar
    36    32    33   ar
    37    33    34   ar
    38    34    35   ar
    39    22    17   ar
    40    15    11   ar
    41    42    37   ar
    42    35    31   ar
    43    27    28    1
    44     1     2    1
    45     5     8    1
@<TRIPOS>MOLECULE
*****
 42 45 0 0 0
SMALL
GASTEIGER

@<TRIPOS>ATOM
      1 N          62.2397   90.3120   11.1627 N.3     1  UNL1       -0.2947
      2 H          62.7330   90.0391   10.3126 H       1  UNL1        0.1233
      3 C          60.8018   89.9308   10.9702 C.3     1  UNL1        0.0888
      4 C          60.4137   89.0066    9.8542 C.3     1  UNL1        0.0948
      5 N          60.3181   89.5252    8.4500 N.am    1  UNL1       -0.2706
      6 C          59.4253   88.8416    7.4572 C.2     1  UNL1        0.4020
      7 O          58.6282   87.6394    7.8686 O.2     1  UNL1       -0.2264
      8 H          60.8412   90.3143    8.1799 H       1  UNL1        0.1527
      9 O          59.3296   89.3602    6.0529 O.3     1  UNL1       -0.4274
     10 C          59.0075   90.8044    5.8071 C.3     1  UNL1        0.2621
     11 C          59.6743   91.5408    4.6833 C.ar    1  UNL1        0.1323
     12 N          59.0107   92.5030    3.7432 N.ar    1  UNL1       -0.2374
     13 C          60.0481   93.0012    2.7811 C.ar    1  UNL1        0.1062
     14 C          61.3529   92.3469    3.1265 C.ar    1  UNL1        0.0573
     15 S          61.1219   91.4443    4.3022 S.2     1  UNL1       -0.0666
     16 C          60.1214   87.5639   10.1425 C.3     1  UNL1        0.0474
     17 C          61.2102   86.5393   10.0214 C.ar    1  UNL1       -0.0205
     18 C          61.6787   85.7955   11.2368 C.ar    1  UNL1       -0.0042
     19 C          62.7674   84.7709   11.1157 C.ar    1  UNL1       -0.0003
     20 C          63.3877   84.4901    9.7791 C.ar    1  UNL1       -0.0000
     21 C          62.9193   85.2338    8.5637 C.ar    1  UNL1       -0.0003
     22 C          61.8305   86.2584    8.6848 C.ar    1  UNL1       -0.0042
     23 C          63.0174   89.7479   12.3146 C.3     1  UNL1        0.0888
     24 C          63.8197   90.6590   13.1958 C.3     1  UNL1        0.0948
     25 O          66.5642   91.2052   14.2769 O.2     1  UNL1       -0.2264
     26 C          66.0366   92.0119   13.1276 C.2     1  UNL1        0.4020
     27 N          64.6644   91.7387   12.5870 N.am    1  UNL1       -0.2706
     28 H          64.3181   92.2682   11.8327 H       1  UNL1        0.1527
     29 O          66.8813   93.0917   12.5189 O.3     1  UNL1       -0.4291
     30 C          66.2383   94.3420   11.9964 C.3     1  UNL1        0.2447
     31 C          66.6666   94.9103   10.6760 C.ar    1  UNL1        0.0714
     32 C          67.2174   94.1319    9.5180 C.ar    1  UNL1        0.1053
     33 N          67.5105   95.0973    8.4080 N.ar    1  UNL1       -0.2350
     34 C          67.1410   96.4724    8.8799 C.ar    1  UNL1        0.1343
     35 S          66.6194   96.3568   10.2816 S.2     1  UNL1       -0.0652
     36 C          63.7772   90.4902   14.6856 C.3     1  UNL1        0.0474
     37 C          63.7188   89.1157   15.2834 C.ar    1  UNL1       -0.0205
     38 C          63.0004   88.8921   16.5810 C.ar    1  UNL1       -0.0042
     39 C          62.9420   87.5176   17.1788 C.ar    1  UNL1       -0.0003
     40 C          63.6022   86.3667   16.4790 C.ar    1  UNL1       -0.0000
     41 C          64.3206   86.5904   15.1814 C.ar    1  UNL1       -0.0003
     42 C          64.3790   87.9649   14.5836 C.ar    1  UNL1       -0.0042
@<TRIPOS>BOND
     1    25    26    2
     2    26    27   am
     3    27    24    1
     4    24    23    1
     5    23     1    1
     6     1     3    1
     7     4     3    1
     8     4    16    1
     9    16    17    1
    10    17    18   ar
    11    18    19   ar
    12    19    20   ar
    13    20    21   ar
    14    21    22   ar
    15     4     5    1
    16     5     6   am
    17     6     7    2
    18     6     9    1
    19     9    10    1
    20    10    11    1
    21    11    12   ar
    22    12    13   ar
    23    13    14   ar
    24    14    15   ar
    25    24    36    1
    26    36    37    1
    27    37    38   ar
    28    38    39   ar
    29    39    40   ar
    30    40    41   ar
    31    41    42   ar
    32    26    29    1
    33    29    30    1
    34    30    31    1
    35    31    32   ar
    36    32    33   ar
    37    33    34   ar
    38    34    35   ar
    39    22    17   ar
    40    15    11   ar
    41    42    37   ar
    42    35    31   ar
    43    27    28    1
    44     1     2    1
    45     5     8    1
@<TRIPOS>MOLECULE
*****
 42 45 0 0 0
SMALL
GASTEIGER

@<TRIPOS>ATOM
      1 N          62.2997   86.4515   12.2735 N.3     1  UNL1       -0.2947
      2 H          61.7338   86.1277   11.4890 H       1  UNL1        0.1233
      3 C          63.3018   85.3726   12.5591 C.3     1  UNL1        0.0888
      4 C          63.8646   85.2184   13.9410 C.3     1  UNL1        0.0948
      5 N          64.0270   86.4207   14.8231 N.am    1  UNL1       -0.2706
      6 C          63.1787   86.5700   16.0512 C.2     1  UNL1        0.4020
      7 O          62.1680   85.5170   16.3972 O.2     1  UNL1       -0.2264
      8 H          64.6903   87.1119   14.5960 H       1  UNL1        0.1527
      9 O          63.3411   87.7723   16.9333 O.3     1  UNL1       -0.4274
     10 C          62.7999   89.1014   16.4967 C.3     1  UNL1        0.2621
     11 C          63.7315   90.1575   15.9802 C.ar    1  UNL1        0.1323
     12 N          63.8801   91.5463   16.5272 N.ar    1  UNL1       -0.2374
     13 C          64.9185   92.2574   15.7110 C.ar    1  UNL1        0.1062
     14 C          65.4118   91.3080   14.6597 C.ar    1  UNL1        0.0573
     15 S          64.6782   90.0102   14.8260 S.2     1  UNL1       -0.0666
     16 C          64.2649   83.8620   14.4408 C.3     1  UNL1        0.0474
     17 C          63.4630   82.6541   14.0559 C.ar    1  UNL1       -0.0205
     18 C          64.0146   81.6722   13.0652 C.ar    1  UNL1       -0.0042
     19 C          63.2128   80.4644   12.6803 C.ar    1  UNL1       -0.0003
     20 C          61.8593   80.2385   13.2862 C.ar    1  UNL1       -0.0000
     21 C          61.3077   81.2204   14.2769 C.ar    1  UNL1       -0.0003
     22 C          62.1095   82.4282   14.6617 C.ar    1  UNL1       -0.0042
     23 C          62.7651   87.8353   11.9295 C.3     1  UNL1        0.0888
     24 C          62.3403   88.4703   10.6386 C.3     1  UNL1        0.0948
     25 O          62.6464   90.9523   12.2955 O.2     1  UNL1       -0.2264
     26 C          63.2511   90.8866   10.9244 C.2     1  UNL1        0.4020
     27 N          63.0980   89.6456   10.0959 N.am    1  UNL1       -0.2706
     28 H          63.4949   89.6025    9.1960 H       1  UNL1        0.1527
     29 O          64.0088   92.0620   10.3817 O.3     1  UNL1       -0.4291
     30 C          65.1535   92.6404   11.1596 C.3     1  UNL1        0.2447
     31 C          66.3693   93.1456   10.4410 C.ar    1  UNL1        0.0714
     32 C          67.6323   92.3744   10.1953 C.ar    1  UNL1        0.1053
     33 N          68.5792   93.2630    9.4444 N.ar    1  UNL1       -0.2350
     34 C          67.9015   94.5832    9.2260 C.ar    1  UNL1        0.1343
     35 S          66.5358   94.5107    9.8419 S.2     1  UNL1       -0.0652
     36 C          61.1579   87.9299    9.8904 C.3     1  UNL1        0.0474
     37 C          61.3471   86.8471    8.8698 C.ar    1  UNL1       -0.0205
     38 C          62.6645   86.1376    8.7645 C.ar    1  UNL1       -0.0042
     39 C          62.8537   85.0547    7.7439 C.ar    1  UNL1       -0.0003
     40 C          61.7256   84.6813    6.8286 C.ar    1  UNL1       -0.0000
     41 C          60.4082   85.3908    6.9339 C.ar    1  UNL1       -0.0003
     42 C          60.2190   86.4737    7.9545 C.ar    1  UNL1       -0.0042
@<TRIPOS>BOND
     1    25    26    2
     2    26    27   am
     3    27    24    1
     4    24    23    1
     5    23     1    1
     6     1     3    1
     7     4     3    1
     8     4    16    1
     9    16    17    1
    10    17    18   ar
    11    18    19   ar
    12    19    20   ar
    13    20    21   ar
    14    21    22   ar
    15     4     5    1
    16     5     6   am
    17     6     7    2
    18     6     9    1
    19     9    10    1
    20    10    11    1
    21    11    12   ar
    22    12    13   ar
    23    13    14   ar
    24    14    15   ar
    25    24    36    1
    26    36    37    1
    27    37    38   ar
    28    38    39   ar
    29    39    40   ar
    30    40    41   ar
    31    41    42   ar
    32    26    29    1
    33    29    30    1
    34    30    31    1
    35    31    32   ar
    36    32    33   ar
    37    33    34   ar
    38    34    35   ar
    39    22    17   ar
    40    15    11   ar
    41    42    37   ar
    42    35    31   ar
    43    27    28    1
    44     1     2    1
    45     5     8    1
@<TRIPOS>MOLECULE
*****
 42 45 0 0 0
SMALL
GASTEIGER

@<TRIPOS>ATOM
      1 N          61.6105   89.3661   12.0519 N.3     1  UNL1       -0.2947
      2 H          61.3245   89.8933   12.8769 H       1  UNL1        0.1233
      3 C          60.8047   89.8920   10.9012 C.3     1  UNL1        0.0888
      4 C          60.3963   88.9720    9.7890 C.3     1  UNL1        0.0948
      5 N          60.2725   89.4965    8.3891 N.am    1  UNL1       -0.2706
      6 C          59.3722   88.8073    7.4069 C.2     1  UNL1        0.4020
      7 O          58.5959   87.5937    7.8246 O.2     1  UNL1       -0.2264
      8 H          60.7820   90.2930    8.1150 H       1  UNL1        0.1527
      9 O          59.2484   89.3318    6.0070 O.3     1  UNL1       -0.4274
     10 C          58.9141   90.7753    5.7738 C.3     1  UNL1        0.2621
     11 C          59.6259   91.5463    4.7020 C.ar    1  UNL1        0.1323
     12 N          59.0254   92.6157    3.8385 N.ar    1  UNL1       -0.2374
     13 C          60.0916   93.1136    2.9083 C.ar    1  UNL1        0.1062
     14 C          61.3512   92.3519    3.1969 C.ar    1  UNL1        0.0573
     15 S          61.0633   91.3833    4.3054 S.2     1  UNL1       -0.0666
     16 C          60.1118   87.5276   10.0767 C.3     1  UNL1        0.0474
     17 C          61.2041   86.5078    9.9472 C.ar    1  UNL1       -0.0205
     18 C          61.6656   85.7457   11.1539 C.ar    1  UNL1       -0.0042
     19 C          62.7579   84.7259   11.0244 C.ar    1  UNL1       -0.0003
     20 C          63.3887   84.4681    9.6881 C.ar    1  UNL1       -0.0000
     21 C          62.9272   85.2302    8.4813 C.ar    1  UNL1       -0.0003
     22 C          61.8349   86.2500    8.6109 C.ar    1  UNL1       -0.0042
     23 C          63.1088   89.4168   12.0034 C.3     1  UNL1        0.0888
     24 C          63.8816   89.9037   13.1933 C.3     1  UNL1        0.0948
     25 O          62.1179   89.6470   15.6063 O.2     1  UNL1       -0.2264
     26 C          63.3656   88.8214   15.4981 C.2     1  UNL1        0.4020
     27 N          64.2474   88.9498   14.2916 N.am    1  UNL1       -0.2706
     28 H          65.0664   88.4080   14.2205 H       1  UNL1        0.1527
     29 O          63.7314   87.8675   16.5964 O.3     1  UNL1       -0.4291
     30 C          63.1076   86.5043   16.6444 C.3     1  UNL1        0.2447
     31 C          63.5751   85.4320   15.7054 C.ar    1  UNL1        0.0714
     32 C          64.8264   85.4680   14.8789 C.ar    1  UNL1        0.1053
     33 N          64.8981   84.1937   14.0908 N.ar    1  UNL1       -0.2350
     34 C          63.6912   83.3702   14.4302 C.ar    1  UNL1        0.1343
     35 S          62.8736   84.1355   15.4281 S.2     1  UNL1       -0.0652
     36 C          64.2886   91.3445   13.2848 C.3     1  UNL1        0.0474
     37 C          65.5057   91.7316   14.0715 C.ar    1  UNL1       -0.0205
     38 C          65.3734   92.1240   15.5132 C.ar    1  UNL1       -0.0042
     39 C          66.5904   92.5110   16.2999 C.ar    1  UNL1       -0.0003
     40 C          67.9399   92.5057   15.6449 C.ar    1  UNL1       -0.0000
     41 C          68.0722   92.1133   14.2033 C.ar    1  UNL1       -0.0003
     42 C          66.8551   91.7262   13.4166 C.ar    1  UNL1       -0.0042
@<TRIPOS>BOND
     1    25    26    2
     2    26    27   am
     3    27    24    1
     4    24    23    1
     5    23     1    1
     6     1     3    1
     7     4     3    1
     8     4    16    1
     9    16    17    1
    10    17    18   ar
    11    18    19   ar
    12    19    20   ar
    13    20    21   ar
    14    21    22   ar
    15     4     5    1
    16     5     6   am
    17     6     7    2
    18     6     9    1
    19     9    10    1
    20    10    11    1
    21    11    12   ar
    22    12    13   ar
    23    13    14   ar
    24    14    15   ar
    25    24    36    1
    26    36    37    1
    27    37    38   ar
    28    38    39   ar
    29    39    40   ar
    30    40    41   ar
    31    41    42   ar
    32    26    29    1
    33    29    30    1
    34    30    31    1
    35    31    32   ar
    36    32    33   ar
    37    33    34   ar
    38    34    35   ar
    39    22    17   ar
    40    15    11   ar
    41    42    37   ar
    42    35    31   ar
    43    27    28    1
    44     1     2    1
    45     5     8    1
@<TRIPOS>MOLECULE
*****
 42 45 0 0 0
SMALL
GASTEIGER

@<TRIPOS>ATOM
      1 N          61.8043   90.1419   11.8050 N.3     1  UNL1       -0.2947
      2 H          62.5361   89.6579   11.2847 H       1  UNL1        0.1233
      3 C          60.5014   89.5171   11.4027 C.3     1  UNL1        0.0888
      4 C          60.4878   88.1711   10.7407 C.3     1  UNL1        0.0948
      5 N          60.5773   86.9256   11.5719 N.am    1  UNL1       -0.2706
      6 C          61.8934   86.5082   12.1582 C.2     1  UNL1        0.4020
      7 O          63.1199   87.3362   11.9133 O.2     1  UNL1       -0.2264
      8 H          59.7723   86.3822   11.7326 H       1  UNL1        0.1527
      9 O          61.9829   85.2627   12.9894 O.3     1  UNL1       -0.4274
     10 C          63.2188   84.4143   12.9385 C.3     1  UNL1        0.2621
     11 C          63.1088   82.9219   13.0415 C.ar    1  UNL1        0.1323
     12 N          63.3980   82.0986   14.2616 N.ar    1  UNL1       -0.2374
     13 C          63.1582   80.6586   13.9168 C.ar    1  UNL1        0.1062
     14 C          62.7207   80.5919   12.4835 C.ar    1  UNL1        0.0573
     15 S          62.6902   81.9906   11.9426 S.2     1  UNL1       -0.0666
     16 C          60.3847   88.0705    9.2477 C.3     1  UNL1        0.0474
     17 C          61.0291   86.9237    8.5269 C.ar    1  UNL1       -0.0205
     18 C          60.2427   86.1295    7.5266 C.ar    1  UNL1       -0.0042
     19 C          60.8871   84.9827    6.8058 C.ar    1  UNL1       -0.0003
     20 C          62.3180   84.6301    7.0854 C.ar    1  UNL1       -0.0000
     21 C          63.1045   85.4243    8.0857 C.ar    1  UNL1       -0.0003
     22 C          62.4601   86.5711    8.8065 C.ar    1  UNL1       -0.0042
     23 C          62.2237   90.1404   13.2451 C.3     1  UNL1        0.0888
     24 C          63.6291   90.5097   13.6174 C.3     1  UNL1        0.0948
     25 O          65.5351   92.6330   14.5442 O.2     1  UNL1       -0.2264
     26 C          65.4602   92.2756   13.0893 C.2     1  UNL1        0.4020
     27 N          64.5072   91.2140   12.6259 N.am    1  UNL1       -0.2706
     28 H          64.4580   90.9795   11.6710 H       1  UNL1        0.1527
     29 O          66.3382   92.9799   12.0979 O.3     1  UNL1       -0.4291
     30 C          66.1505   94.4452   11.8378 C.3     1  UNL1        0.2447
     31 C          66.6347   95.0468   10.5518 C.ar    1  UNL1        0.0714
     32 C          67.1376   94.2896    9.3585 C.ar    1  UNL1        0.1053
     33 N          67.5148   95.2860    8.3026 N.ar    1  UNL1       -0.2350
     34 C          67.2449   96.6590    8.8433 C.ar    1  UNL1        0.1343
     35 S          66.7010   96.5111   10.2333 S.2     1  UNL1       -0.0652
     36 C          64.1564   90.1748   14.9811 C.3     1  UNL1        0.0474
     37 C          63.8873   88.8255   15.5787 C.ar    1  UNL1       -0.0205
     38 C          64.4271   87.5916   14.9183 C.ar    1  UNL1       -0.0042
     39 C          64.1580   86.2424   15.5159 C.ar    1  UNL1       -0.0003
     40 C          63.3492   86.1270   16.7738 C.ar    1  UNL1       -0.0000
     41 C          62.8094   87.3609   17.4342 C.ar    1  UNL1       -0.0003
     42 C          63.0785   88.7101   16.8366 C.ar    1  UNL1       -0.0042
@<TRIPOS>BOND
     1    25    26    2
     2    26    27   am
     3    27    24    1
     4    24    23    1
     5    23     1    1
     6     1     3    1
     7     4     3    1
     8     4    16    1
     9    16    17    1
    10    17    18   ar
    11    18    19   ar
    12    19    20   ar
    13    20    21   ar
    14    21    22   ar
    15     4     5    1
    16     5     6   am
    17     6     7    2
    18     6     9    1
    19     9    10    1
    20    10    11    1
    21    11    12   ar
    22    12    13   ar
    23    13    14   ar
    24    14    15   ar
    25    24    36    1
    26    36    37    1
    27    37    38   ar
    28    38    39   ar
    29    39    40   ar
    30    40    41   ar
    31    41    42   ar
    32    26    29    1
    33    29    30    1
    34    30    31    1
    35    31    32   ar
    36    32    33   ar
    37    33    34   ar
    38    34    35   ar
    39    22    17   ar
    40    15    11   ar
    41    42    37   ar
    42    35    31   ar
    43    27    28    1
    44     1     2    1
    45     5     8    1
