@<TRIPOS>MOLECULE
*****
 28 31 0 0 0
SMALL
GASTEIGER

@<TRIPOS>ATOM
      1 C          63.1020   90.1918   11.8616 C.2     1  UNL1        0.2651
      2 O          62.3936   89.7964   13.1232 O.2     1  UNL1       -0.2684
      3 N          62.8182   89.4624   10.5819 N.am    1  UNL1       -0.2996
      4 H          63.2832   89.7219    9.7539 H       1  UNL1        0.1498
      5 C          65.5003   93.1658   11.1766 C.ar    1  UNL1        0.1239
      6 N          64.4819   92.1692   10.7079 N.ar    1  UNL1       -0.2260
      7 C          64.0943   91.3166   11.8796 C.ar    1  UNL1        0.1517
      8 C          64.8730   91.7863   13.0725 C.ar    1  UNL1        0.0872
      9 C          64.9031   91.3210   14.4981 C.ar    1  UNL1        0.0193
     10 C          65.8022   91.9986   15.4893 C.ar    1  UNL1        0.0031
     11 C          66.6712   93.1414   15.0549 C.ar    1  UNL1        0.0191
     12 C          66.6411   93.6067   13.6292 C.ar    1  UNL1        0.0811
     13 N          65.7420   92.9292   12.6380 N.ar    1  UNL1       -0.2921
     14 C          67.3120   93.8469    9.4434 C.3     1  UNL1        0.0079
     15 C          66.1610   94.2148   10.3322 C.3     1  UNL1        0.0573
     16 C          65.6708   95.6317   10.3766 C.3     1  UNL1        0.0079
     17 C          61.8260   88.3376   10.5639 C.3     1  UNL1        0.0898
     18 C          62.2089   86.9912   11.1027 C.3     1  UNL1        0.0224
     19 C          62.2780   85.5010   10.9459 C.3     1  UNL1        0.0191
     20 C          62.4800   84.0200   11.0730 C.3     1  UNL1        0.0722
     21 N          63.1298   83.7529   12.3983 N.3     1  UNL1       -0.2705
     22 C          63.3294   85.0687   13.0903 C.3     1  UNL1        0.0722
     23 C          62.8030   86.1490   12.1926 C.3     1  UNL1        0.0191
     24 C          63.5127   82.4064   12.9370 C.3     1  UNL1        0.1050
     25 C          62.4494   81.4041   13.2759 C.3     1  UNL1        0.1486
     26 C          62.0676   82.2158   14.4782 C.3     1  UNL1        0.0368
     27 C          62.8312   80.5925   12.0736 C.3     1  UNL1        0.0368
     28 F          61.3861   80.4019   13.6148 F       1  UNL1       -0.2386
@<TRIPOS>BOND
     1    14    15    1
     2    15    16    1
     3    15     5    1
     4     5     6   ar
     5     6     7   ar
     6     7     1    1
     7     1     2    2
     8     1     3   am
     9     3    17    1
    10    18    17    1
    11    18    19    1
    12    19    20    1
    13    20    21    1
    14    21    24    1
    15    24    25    1
    16    25    26    1
    17    25    27    1
    18    25    28    1
    19    21    22    1
    20    23    22    1
    21     7     8   ar
    22     8     9   ar
    23     9    10   ar
    24    10    11   ar
    25    11    12   ar
    26    12    13   ar
    27    13     5   ar
    28    23    18    1
    29    13     8   ar
    30    23    19    1
    31     3     4    1
@<TRIPOS>MOLECULE
*****
 28 31 0 0 0
SMALL
GASTEIGER

@<TRIPOS>ATOM
      1 C          63.1450   90.8833   11.2858 C.2     1  UNL1        0.2651
      2 O          62.5584   90.1166   12.4337 O.2     1  UNL1       -0.2684
      3 N          62.6458   90.6448    9.8914 N.am    1  UNL1       -0.2996
      4 H          63.0308   91.1480    9.1379 H       1  UNL1        0.1498
      5 C          65.8173   93.6973   11.2130 C.ar    1  UNL1        0.1239
      6 N          64.7326   92.9032   10.5477 N.ar    1  UNL1       -0.2260
      7 C          64.2308   91.8885   11.5319 C.ar    1  UNL1        0.1517
      8 C          65.0054   92.0555   12.8055 C.ar    1  UNL1        0.0872
      9 C          64.9446   91.3341   14.1192 C.ar    1  UNL1        0.0193
     10 C          65.8643   91.7306   15.2358 C.ar    1  UNL1        0.0031
     11 C          66.8449   92.8484   15.0387 C.ar    1  UNL1        0.0191
     12 C          66.9057   93.5699   13.7251 C.ar    1  UNL1        0.0811
     13 N          65.9860   93.1734   12.6084 N.ar    1  UNL1       -0.2921
     14 C          67.5916   94.5294    9.5072 C.3     1  UNL1        0.0079
     15 C          66.5967   94.8184   10.5920 C.3     1  UNL1        0.0573
     16 C          66.3813   96.2285   11.0558 C.3     1  UNL1        0.0079
     17 C          61.5599   89.6396    9.6453 C.3     1  UNL1        0.0898
     18 C          61.7936   88.1915    9.9587 C.3     1  UNL1        0.0224
     19 C          61.9539   87.0893   10.9635 C.3     1  UNL1        0.0191
     20 C          62.1502   85.8059   11.7148 C.3     1  UNL1        0.0722
     21 N          62.3554   84.7088   10.7126 N.3     1  UNL1       -0.2705
     22 C          62.2860   85.3141    9.3420 C.3     1  UNL1        0.0722
     23 C          62.0379   86.7853    9.4970 C.3     1  UNL1        0.0191
     24 C          62.5890   83.2607   11.0261 C.3     1  UNL1        0.1050
     25 C          63.6972   82.8639   11.9560 C.3     1  UNL1        0.1486
     26 C          64.7040   83.1737   10.8882 C.3     1  UNL1        0.0368
     27 C          62.6903   82.5542   13.0238 C.3     1  UNL1        0.0368
     28 F          64.8053   82.4672   12.8858 F       1  UNL1       -0.2386
@<TRIPOS>BOND
     1    14    15    1
     2    15    16    1
     3    15     5    1
     4     5     6   ar
     5     6     7   ar
     6     7     1    1
     7     1     2    2
     8     1     3   am
     9     3    17    1
    10    18    17    1
    11    18    19    1
    12    19    20    1
    13    20    21    1
    14    21    24    1
    15    24    25    1
    16    25    26    1
    17    25    27    1
    18    25    28    1
    19    21    22    1
    20    23    22    1
    21     7     8   ar
    22     8     9   ar
    23     9    10   ar
    24    10    11   ar
    25    11    12   ar
    26    12    13   ar
    27    13     5   ar
    28    23    18    1
    29    13     8   ar
    30    23    19    1
    31     3     4    1
@<TRIPOS>MOLECULE
*****
 28 31 0 0 0
SMALL
GASTEIGER

@<TRIPOS>ATOM
      1 C          62.8152   88.9940   11.9602 C.2     1  UNL1        0.2651
      2 O          62.0285   90.2393   11.6773 O.2     1  UNL1       -0.2684
      3 N          63.8790   89.0030   13.0178 N.am    1  UNL1       -0.2996
      4 H          64.3954   88.1856   13.2036 H       1  UNL1        0.1498
      5 C          61.8976   86.2207    9.4045 C.ar    1  UNL1        0.1239
      6 N          62.0283   87.6678    9.7768 N.ar    1  UNL1       -0.2260
      7 C          62.5382   87.7396   11.1857 C.ar    1  UNL1        0.1517
      8 C          62.7227   86.3369   11.6840 C.ar    1  UNL1        0.0872
      9 C          63.2000   85.7931   12.9979 C.ar    1  UNL1        0.0193
     10 C          63.2813   84.3106   13.2110 C.ar    1  UNL1        0.0031
     11 C          62.8853   83.3718   12.1102 C.ar    1  UNL1        0.0191
     12 C          62.4080   83.9156   10.7962 C.ar    1  UNL1        0.0811
     13 N          62.3267   85.3981   10.5832 N.ar    1  UNL1       -0.2921
     14 C          62.3559   84.9081    7.2096 C.3     1  UNL1        0.0079
     15 C          61.4213   85.6893    8.0851 C.3     1  UNL1        0.0573
     16 C          60.0105   85.9391    7.6410 C.3     1  UNL1        0.0079
     17 C          64.1559   90.2573   13.7924 C.3     1  UNL1        0.0898
     18 C          64.7552   91.4472   13.1033 C.3     1  UNL1        0.0224
     19 C          65.6217   92.6710   13.1426 C.3     1  UNL1        0.0191
     20 C          66.4065   93.9222   12.8803 C.3     1  UNL1        0.0722
     21 N          66.1965   94.3090   11.4464 N.3     1  UNL1       -0.2705
     22 C          65.2819   93.2970   10.8224 C.3     1  UNL1        0.0722
     23 C          64.9267   92.2846   11.8707 C.3     1  UNL1        0.0191
     24 C          66.7959   95.4990   10.7574 C.3     1  UNL1        0.1050
     25 C          66.8188   95.5653    9.2590 C.3     1  UNL1        0.1486
     26 C          65.7131   96.5785    9.2869 C.3     1  UNL1        0.0368
     27 C          67.9245   94.5521    9.2311 C.3     1  UNL1        0.0368
     28 F          66.8417   95.6316    7.7607 F       1  UNL1       -0.2386
@<TRIPOS>BOND
     1    14    15    1
     2    15    16    1
     3    15     5    1
     4     5     6   ar
     5     6     7   ar
     6     7     1    1
     7     1     2    2
     8     1     3   am
     9     3    17    1
    10    18    17    1
    11    18    19    1
    12    19    20    1
    13    20    21    1
    14    21    24    1
    15    24    25    1
    16    25    26    1
    17    25    27    1
    18    25    28    1
    19    21    22    1
    20    23    22    1
    21     7     8   ar
    22     8     9   ar
    23     9    10   ar
    24    10    11   ar
    25    11    12   ar
    26    12    13   ar
    27    13     5   ar
    28    23    18    1
    29    13     8   ar
    30    23    19    1
    31     3     4    1
@<TRIPOS>MOLECULE
*****
 28 31 0 0 0
SMALL
GASTEIGER

@<TRIPOS>ATOM
      1 C          62.9822   88.9028   12.5257 C.2     1  UNL1        0.2651
      2 O          62.0554   90.0667   12.3358 O.2     1  UNL1       -0.2684
      3 N          64.1771   89.0343   13.4231 N.am    1  UNL1       -0.2996
      4 H          64.7855   88.2704   13.5477 H       1  UNL1        0.1498
      5 C          62.7212   85.2516   11.2351 C.ar    1  UNL1        0.1239
      6 N          63.2348   86.2593   12.2204 N.ar    1  UNL1       -0.2260
      7 C          62.7145   87.6075   11.8183 C.ar    1  UNL1        0.1517
      8 C          61.8793   87.4330   10.5845 C.ar    1  UNL1        0.0872
      9 C          61.1155   88.4118    9.7428 C.ar    1  UNL1        0.0193
     10 C          60.3560   87.9345    8.5406 C.ar    1  UNL1        0.0031
     11 C          60.3602   86.4784    8.1802 C.ar    1  UNL1        0.0191
     12 C          61.1239   85.4996    9.0220 C.ar    1  UNL1        0.0811
     13 N          61.8835   85.9769   10.2241 N.ar    1  UNL1       -0.2921
     14 C          63.8070   83.1494   10.1616 C.3     1  UNL1        0.0079
     15 C          62.9970   83.7773   11.2570 C.3     1  UNL1        0.0573
     16 C          62.4628   82.9309   12.3741 C.3     1  UNL1        0.0079
     17 C          64.4449   90.3296   14.1305 C.3     1  UNL1        0.0898
     18 C          64.9715   91.5072   13.3650 C.3     1  UNL1        0.0224
     19 C          65.7828   92.7679   13.3172 C.3     1  UNL1        0.0191
     20 C          66.5032   94.0368   12.9693 C.3     1  UNL1        0.0722
     21 N          66.2380   94.3392   11.5243 N.3     1  UNL1       -0.2705
     22 C          65.3536   93.2572   10.9790 C.3     1  UNL1        0.0722
     23 C          65.0723   92.2861   12.0871 C.3     1  UNL1        0.0191
     24 C          66.7646   95.5168   10.7589 C.3     1  UNL1        0.1050
     25 C          66.6933   95.5302    9.2607 C.3     1  UNL1        0.1486
     26 C          67.8610   94.5909    9.1967 C.3     1  UNL1        0.0368
     27 C          65.5256   96.4695    9.3246 C.3     1  UNL1        0.0368
     28 F          66.6220   95.5436    7.7624 F       1  UNL1       -0.2386
@<TRIPOS>BOND
     1    14    15    1
     2    15    16    1
     3    15     5    1
     4     5     6   ar
     5     6     7   ar
     6     7     1    1
     7     1     2    2
     8     1     3   am
     9     3    17    1
    10    18    17    1
    11    18    19    1
    12    19    20    1
    13    20    21    1
    14    21    24    1
    15    24    25    1
    16    25    26    1
    17    25    27    1
    18    25    28    1
    19    21    22    1
    20    23    22    1
    21     7     8   ar
    22     8     9   ar
    23     9    10   ar
    24    10    11   ar
    25    11    12   ar
    26    12    13   ar
    27    13     5   ar
    28    23    18    1
    29    13     8   ar
    30    23    19    1
    31     3     4    1
@<TRIPOS>MOLECULE
*****
 28 31 0 0 0
SMALL
GASTEIGER

@<TRIPOS>ATOM
      1 C          63.2887   84.8907   15.4873 C.2     1  UNL1        0.2651
      2 O          64.6910   85.4212   15.4430 O.2     1  UNL1       -0.2684
      3 N          62.2630   85.5544   16.3576 N.am    1  UNL1       -0.2996
      4 H          61.3425   85.2063   16.3868 H       1  UNL1        0.1498
      5 C          61.9178   81.5973   13.9578 C.ar    1  UNL1        0.1239
      6 N          62.0198   82.5712   15.0941 N.ar    1  UNL1       -0.2260
      7 C          62.9121   83.6966   14.6613 C.ar    1  UNL1        0.1517
      8 C          63.3616   83.4183   13.2576 C.ar    1  UNL1        0.0872
      9 C          64.2511   84.1786   12.3192 C.ar    1  UNL1        0.0193
     10 C          64.5260   83.6415   10.9459 C.ar    1  UNL1        0.0031
     11 C          63.9115   82.3440   10.5111 C.ar    1  UNL1        0.0191
     12 C          63.0221   81.5837   11.4496 C.ar    1  UNL1        0.0811
     13 N          62.7471   82.1208   12.8228 N.ar    1  UNL1       -0.2921
     14 C          61.8079   79.0163   13.6815 C.3     1  UNL1        0.0079
     15 C          61.1257   80.3236   13.9567 C.3     1  UNL1        0.0573
     16 C          59.6514   80.3569   14.2309 C.3     1  UNL1        0.0079
     17 C          62.6396   86.7486   17.1836 C.3     1  UNL1        0.0898
     18 C          63.1878   87.9769   16.5197 C.3     1  UNL1        0.0224
     19 C          63.4137   89.4597   16.5148 C.3     1  UNL1        0.0191
     20 C          63.7813   90.8870   16.2357 C.3     1  UNL1        0.0722
     21 N          64.5061   90.9309   14.9232 N.3     1  UNL1       -0.2705
     22 C          64.5864   89.5307   14.3910 C.3     1  UNL1        0.0722
     23 C          63.9113   88.6215   15.3747 C.3     1  UNL1        0.0191
     24 C          65.0542   92.1592   14.2593 C.3     1  UNL1        0.1050
     25 C          66.3148   92.0755   13.4507 C.3     1  UNL1        0.1486
     26 C          67.0975   91.7975   14.6997 C.3     1  UNL1        0.0368
     27 C          65.5320   92.3535   12.2017 C.3     1  UNL1        0.0368
     28 F          67.5753   91.9918   12.6420 F       1  UNL1       -0.2386
@<TRIPOS>BOND
     1    14    15    1
     2    15    16    1
     3    15     5    1
     4     5     6   ar
     5     6     7   ar
     6     7     1    1
     7     1     2    2
     8     1     3   am
     9     3    17    1
    10    18    17    1
    11    18    19    1
    12    19    20    1
    13    20    21    1
    14    21    24    1
    15    24    25    1
    16    25    26    1
    17    25    27    1
    18    25    28    1
    19    21    22    1
    20    23    22    1
    21     7     8   ar
    22     8     9   ar
    23     9    10   ar
    24    10    11   ar
    25    11    12   ar
    26    12    13   ar
    27    13     5   ar
    28    23    18    1
    29    13     8   ar
    30    23    19    1
    31     3     4    1
@<TRIPOS>MOLECULE
*****
 28 31 0 0 0
SMALL
GASTEIGER

@<TRIPOS>ATOM
      1 C          63.8640   88.3925   14.7855 C.2     1  UNL1        0.2651
      2 O          63.8984   87.0668   14.0847 O.2     1  UNL1       -0.2684
      3 N          63.4233   88.4728   16.2171 N.am    1  UNL1       -0.2996
      4 H          63.4006   89.3429   16.6772 H       1  UNL1        0.1498
      5 C          65.3355   91.7484   13.5058 C.ar    1  UNL1        0.1239
      6 N          65.2213   90.6838   14.5563 N.ar    1  UNL1       -0.2260
      7 C          64.2702   89.6380   14.0549 C.ar    1  UNL1        0.1517
      8 C          63.7964   90.0562   12.6945 C.ar    1  UNL1        0.0872
      9 C          62.8506   89.4179   11.7209 C.ar    1  UNL1        0.0193
     10 C          62.5632   90.0839   10.4080 C.ar    1  UNL1        0.0031
     11 C          63.2217   91.3882   10.0686 C.ar    1  UNL1        0.0191
     12 C          64.1675   92.0266   11.0422 C.ar    1  UNL1        0.0811
     13 N          64.4549   91.3606   12.3551 N.ar    1  UNL1       -0.2921
     14 C          66.8905   93.3209   14.8694 C.3     1  UNL1        0.0079
     15 C          66.1817   92.9840   13.5910 C.3     1  UNL1        0.0573
     16 C          66.3191   93.8827   12.3981 C.3     1  UNL1        0.0079
     17 C          63.0171   87.2273   16.9478 C.3     1  UNL1        0.0898
     18 C          63.1673   85.8884   16.2885 C.3     1  UNL1        0.0224
     19 C          64.0422   84.8179   15.7065 C.3     1  UNL1        0.0191
     20 C          64.6453   83.5995   15.0726 C.3     1  UNL1        0.0722
     21 N          63.5289   82.6684   14.7031 N.3     1  UNL1       -0.2705
     22 C          62.2357   83.3113   15.1085 C.3     1  UNL1        0.0722
     23 C          62.5530   84.6397   15.7287 C.3     1  UNL1        0.0191
     24 C          63.6793   81.3294   14.0438 C.3     1  UNL1        0.1050
     25 C          63.1746   81.1204   12.6468 C.3     1  UNL1        0.1486
     26 C          62.2513   80.0466   13.1410 C.3     1  UNL1        0.0368
     27 C          64.0980   82.1943   12.1526 C.3     1  UNL1        0.0368
     28 F          62.6700   80.9115   11.2498 F       1  UNL1       -0.2386
@<TRIPOS>BOND
     1    14    15    1
     2    15    16    1
     3    15     5    1
     4     5     6   ar
     5     6     7   ar
     6     7     1    1
     7     1     2    2
     8     1     3   am
     9     3    17    1
    10    18    17    1
    11    18    19    1
    12    19    20    1
    13    20    21    1
    14    21    24    1
    15    24    25    1
    16    25    26    1
    17    25    27    1
    18    25    28    1
    19    21    22    1
    20    23    22    1
    21     7     8   ar
    22     8     9   ar
    23     9    10   ar
    24    10    11   ar
    25    11    12   ar
    26    12    13   ar
    27    13     5   ar
    28    23    18    1
    29    13     8   ar
    30    23    19    1
    31     3     4    1
@<TRIPOS>MOLECULE
*****
 28 31 0 0 0
SMALL
GASTEIGER

@<TRIPOS>ATOM
      1 C          59.8006   87.9364    8.2577 C.2     1  UNL1        0.2651
      2 O          58.6154   87.0937    7.8903 O.2     1  UNL1       -0.2684
      3 N          60.0492   89.2326    7.5447 N.am    1  UNL1       -0.2996
      4 H          60.8271   89.7857    7.7858 H       1  UNL1        0.1498
      5 C          62.0548   86.0713   10.8082 C.ar    1  UNL1        0.1239
      6 N          61.0874   86.0609    9.6619 N.ar    1  UNL1       -0.2260
      7 C          60.7373   87.4831    9.3380 C.ar    1  UNL1        0.1517
      8 C          61.4883   88.3724   10.2842 C.ar    1  UNL1        0.0872
      9 C          61.5359   89.8639   10.4357 C.ar    1  UNL1        0.0193
     10 C          62.3977   90.4829   11.4959 C.ar    1  UNL1        0.0031
     11 C          63.2120   89.6104   12.4045 C.ar    1  UNL1        0.0191
     12 C          63.1644   88.1188   12.2530 C.ar    1  UNL1        0.0811
     13 N          62.3025   87.4998   11.1928 N.ar    1  UNL1       -0.2921
     14 C          63.3888   83.8497   10.6205 C.3     1  UNL1        0.0079
     15 C          62.6669   84.8649   11.4562 C.3     1  UNL1        0.0573
     16 C          62.5573   84.6736   12.9399 C.3     1  UNL1        0.0079
     17 C          59.1125   89.6859    6.4643 C.3     1  UNL1        0.0898
     18 C          59.5917   90.6342    5.4055 C.3     1  UNL1        0.0224
     19 C          60.7096   91.2141    4.5906 C.3     1  UNL1        0.0191
     20 C          61.5997   91.9669    3.6466 C.3     1  UNL1        0.0722
     21 N          60.7443   92.9147    2.8593 N.3     1  UNL1       -0.2705
     22 C          59.3256   92.7478    3.3166 C.3     1  UNL1        0.0722
     23 C          59.3041   91.6967    4.3866 C.3     1  UNL1        0.0191
     24 C          61.2237   93.8630    1.8005 C.3     1  UNL1        0.1050
     25 C          62.2585   93.4195    0.8093 C.3     1  UNL1        0.1486
     26 C          61.2550   92.5059    0.1704 C.3     1  UNL1        0.0368
     27 C          63.2620   94.3331    1.4482 C.3     1  UNL1        0.0368
     28 F          63.2933   92.9761   -0.1819 F       1  UNL1       -0.2386
@<TRIPOS>BOND
     1    14    15    1
     2    15    16    1
     3    15     5    1
     4     5     6   ar
     5     6     7   ar
     6     7     1    1
     7     1     2    2
     8     1     3   am
     9     3    17    1
    10    18    17    1
    11    18    19    1
    12    19    20    1
    13    20    21    1
    14    21    24    1
    15    24    25    1
    16    25    26    1
    17    25    27    1
    18    25    28    1
    19    21    22    1
    20    23    22    1
    21     7     8   ar
    22     8     9   ar
    23     9    10   ar
    24    10    11   ar
    25    11    12   ar
    26    12    13   ar
    27    13     5   ar
    28    23    18    1
    29    13     8   ar
    30    23    19    1
    31     3     4    1
@<TRIPOS>MOLECULE
*****
 28 31 0 0 0
SMALL
GASTEIGER

@<TRIPOS>ATOM
      1 C          63.0696   90.0646   12.2406 C.2     1  UNL1        0.2651
      2 O          61.9887   89.4489   13.0786 O.2     1  UNL1       -0.2684
      3 N          63.1825   89.7143   10.7864 N.am    1  UNL1       -0.2996
      4 H          63.8920   90.1183   10.2363 H       1  UNL1        0.1498
      5 C          65.4166   92.2008   14.4753 C.ar    1  UNL1        0.1239
      6 N          64.4272   91.0864   14.3041 N.ar    1  UNL1       -0.2260
      7 C          64.0378   91.0307   12.8566 C.ar    1  UNL1        0.1517
      8 C          64.7865   92.1106   12.1333 C.ar    1  UNL1        0.0872
      9 C          64.8023   92.5289   10.6929 C.ar    1  UNL1        0.0193
     10 C          65.6703   93.6703   10.2529 C.ar    1  UNL1        0.0031
     11 C          66.5225   94.3935   11.2534 C.ar    1  UNL1        0.0191
     12 C          66.5066   93.9752   12.6938 C.ar    1  UNL1        0.0811
     13 N          65.6386   92.8338   13.1337 N.ar    1  UNL1       -0.2921
     14 C          67.5107   93.0257   15.7732 C.3     1  UNL1        0.0079
     15 C          66.0693   92.6103   15.7623 C.3     1  UNL1        0.0573
     16 C          65.2809   92.6045   17.0383 C.3     1  UNL1        0.0079
     17 C          62.2143   88.7482   10.1704 C.3     1  UNL1        0.0898
     18 C          62.3147   87.2844   10.4821 C.3     1  UNL1        0.0224
     19 C          62.2599   86.1609   11.4744 C.3     1  UNL1        0.0191
     20 C          62.2677   84.8577   12.2173 C.3     1  UNL1        0.0722
     21 N          62.5561   83.7642   11.2320 N.3     1  UNL1       -0.2705
     22 C          62.7264   84.3914    9.8801 C.3     1  UNL1        0.0722
     23 C          62.5434   85.8726   10.0299 C.3     1  UNL1        0.0191
     24 C          62.6564   82.3004   11.5438 C.3     1  UNL1        0.1050
     25 C          63.3180   81.8473   12.8115 C.3     1  UNL1        0.1486
     26 C          64.6430   82.3166   12.2878 C.3     1  UNL1        0.0368
     27 C          61.9931   81.3780   13.3352 C.3     1  UNL1        0.0368
     28 F          63.9796   81.3942   14.0791 F       1  UNL1       -0.2386
@<TRIPOS>BOND
     1    14    15    1
     2    15    16    1
     3    15     5    1
     4     5     6   ar
     5     6     7   ar
     6     7     1    1
     7     1     2    2
     8     1     3   am
     9     3    17    1
    10    18    17    1
    11    18    19    1
    12    19    20    1
    13    20    21    1
    14    21    24    1
    15    24    25    1
    16    25    26    1
    17    25    27    1
    18    25    28    1
    19    21    22    1
    20    23    22    1
    21     7     8   ar
    22     8     9   ar
    23     9    10   ar
    24    10    11   ar
    25    11    12   ar
    26    12    13   ar
    27    13     5   ar
    28    23    18    1
    29    13     8   ar
    30    23    19    1
    31     3     4    1
@<TRIPOS>MOLECULE
*****
 28 31 0 0 0
SMALL
GASTEIGER

@<TRIPOS>ATOM
      1 C          59.0945   91.8085    4.5360 C.2     1  UNL1        0.2651
      2 O          57.6187   92.0694    4.5973 O.2     1  UNL1       -0.2684
      3 N          59.7095   90.7677    5.4241 N.am    1  UNL1       -0.2996
      4 H          60.6782   90.5964    5.3840 H       1  UNL1        0.1498
      5 C          60.7218   94.2781    2.0226 C.ar    1  UNL1        0.1239
      6 N          59.5582   93.8396    2.8613 N.ar    1  UNL1       -0.2260
      7 C          59.9553   92.5882    3.5868 C.ar    1  UNL1        0.1517
      8 C          61.3643   92.2533    3.1964 C.ar    1  UNL1        0.0872
      9 C          62.2772   91.1323    3.5963 C.ar    1  UNL1        0.0193
     10 C          63.6638   91.0557    3.0294 C.ar    1  UNL1        0.0031
     11 C          64.1376   92.1002    2.0626 C.ar    1  UNL1        0.0191
     12 C          63.2247   93.2212    1.6627 C.ar    1  UNL1        0.0811
     13 N          61.8381   93.2978    2.2296 N.ar    1  UNL1       -0.2921
     14 C          61.7526   96.5800    1.3986 C.3     1  UNL1        0.0079
     15 C          60.7622   95.4851    1.1329 C.3     1  UNL1        0.0573
     16 C          59.8122   95.5974   -0.0224 C.3     1  UNL1        0.0079
     17 C          58.8487   89.9880    6.3734 C.3     1  UNL1        0.0898
     18 C          59.4768   89.0264    7.3382 C.3     1  UNL1        0.0224
     19 C          59.7122   87.6196    7.8024 C.3     1  UNL1        0.0191
     20 C          60.1190   86.3503    8.4905 C.3     1  UNL1        0.0722
     21 N          60.9873   86.7138    9.6583 N.3     1  UNL1       -0.2705
     22 C          61.1173   88.2078    9.6920 C.3     1  UNL1        0.0722
     23 C          60.3292   88.7676    8.5450 C.3     1  UNL1        0.0191
     24 C          61.6154   85.7522   10.6231 C.3     1  UNL1        0.1050
     25 C          62.7527   84.8805   10.1798 C.3     1  UNL1        0.1486
     26 C          62.8082   85.6168    8.8742 C.3     1  UNL1        0.0368
     27 C          62.6972   84.1441   11.4854 C.3     1  UNL1        0.0368
     28 F          63.8900   84.0087    9.7365 F       1  UNL1       -0.2386
@<TRIPOS>BOND
     1    14    15    1
     2    15    16    1
     3    15     5    1
     4     5     6   ar
     5     6     7   ar
     6     7     1    1
     7     1     2    2
     8     1     3   am
     9     3    17    1
    10    18    17    1
    11    18    19    1
    12    19    20    1
    13    20    21    1
    14    21    24    1
    15    24    25    1
    16    25    26    1
    17    25    27    1
    18    25    28    1
    19    21    22    1
    20    23    22    1
    21     7     8   ar
    22     8     9   ar
    23     9    10   ar
    24    10    11   ar
    25    11    12   ar
    26    12    13   ar
    27    13     5   ar
    28    23    18    1
    29    13     8   ar
    30    23    19    1
    31     3     4    1
