@<TRIPOS>MOLECULE
*****
 37 40 0 0 0
SMALL
GASTEIGER

@<TRIPOS>ATOM
      1 C          65.9466   92.1449   13.4225 C.3     1  UNL1        0.1338
      2 C          66.3679   92.7587   14.7247 C.2     1  UNL1        0.0732
      3 C          65.3640   92.3668   15.7681 C.2     1  UNL1        0.1887
      4 O          65.3962   92.7616   17.2148 O.2     1  UNL1       -0.5020
      5 C          64.3223   91.5107   15.1107 C.2     1  UNL1        0.2869
      6 O          63.1299   90.8992   15.7847 O.2     1  UNL1       -0.2662
      7 N          64.6824   91.3736   13.6610 N.am    1  UNL1       -0.2463
      8 H          66.0901   93.3021   17.5376 H       1  UNL1        0.2924
      9 C          66.3714   93.4433   11.2125 C.ar    1  UNL1        0.1366
     10 C          67.0884   93.5773    9.9019 C.ar    1  UNL1        0.0366
     11 C          68.0977   92.5468    9.4904 C.ar    1  UNL1        0.0031
     12 C          68.3899   91.3823   10.3895 C.ar    1  UNL1       -0.0001
     13 C          67.6729   91.2483   11.7002 C.ar    1  UNL1        0.0007
     14 C          66.6637   92.2788   12.1117 C.ar    1  UNL1        0.0344
     15 O          65.3621   94.4739   11.6241 O.3     1  UNL1       -0.4701
     16 C          65.7275   95.9286   11.6110 C.3     1  UNL1        0.2693
     17 C          65.2396   96.8145   10.5032 C.3     1  UNL1        0.3030
     18 C          65.1868   96.8555    7.9060 C.3     1  UNL1        0.3199
     19 S          65.9631   96.8401    9.1895 S.O     1  UNL1        0.0397
     20 O          67.4627   96.8503    9.1592 O.co2   1  UNL1       -0.6811
     21 C          63.9133   90.6008   12.6308 C.ar    1  UNL1        0.0548
     22 C          63.5734   89.1601   12.8732 C.ar    1  UNL1        0.0149
     23 C          62.8043   88.3874   11.8430 C.ar    1  UNL1        0.0013
     24 C          62.3750   89.0554   10.5703 C.ar    1  UNL1        0.0006
     25 C          62.7149   90.4962   10.3279 C.ar    1  UNL1        0.0013
     26 C          63.4841   91.2688   11.3582 C.ar    1  UNL1        0.0149
     27 C          61.6059   88.2826    9.5401 C.ar    1  UNL1        0.0070
     28 C          61.8809   86.8726    9.1089 C.ar    1  UNL1        0.0075
     29 C          60.8718   86.5027    8.0625 C.ar    1  UNL1        0.0355
     30 S          59.9731   87.6843    7.8471 S.2     1  UNL1       -0.0859
     31 C          60.4269   88.7843    8.7604 C.ar    1  UNL1        0.0354
     32 C          67.5801   93.6142   14.9449 C.2     1  UNL1        0.1732
     33 O          67.9189   94.8708   14.5860 O.2     1  UNL1       -0.2915
     34 C          68.7469   93.0767   15.7191 C.3     1  UNL1        0.0554
     35 C          69.1307   94.4730   16.1103 C.3     1  UNL1        0.0077
     36 C          68.3632   91.6803   15.3280 C.3     1  UNL1        0.0077
     37 C          69.9137   92.5391   16.4934 C.3     1  UNL1        0.0077
@<TRIPOS>UNITY_ATOM_ATTR
19 1
charge 1
20 1
charge -1
@<TRIPOS>BOND
     1    18    19    1
     2    19    20    2
     3    19    17    1
     4    17    16    1
     5    16    15    1
     6    15     9    1
     7     9    10   ar
     8    10    11   ar
     9    11    12   ar
    10    12    13   ar
    11    13    14   ar
    12    14     1    1
    13     1     2    1
    14     2    32    1
    15    32    33    2
    16    32    34    1
    17    34    35    1
    18    34    36    1
    19    34    37    1
    20     2     3    2
    21     3     4    1
    22     3     5    1
    23     5     6    2
    24     5     7   am
    25     7    21    1
    26    21    22   ar
    27    22    23   ar
    28    23    24   ar
    29    24    27    1
    30    27    28   ar
    31    28    29   ar
    32    29    30   ar
    33    30    31   ar
    34    24    25   ar
    35    25    26   ar
    36    14     9   ar
    37     7     1    1
    38    26    21   ar
    39    31    27   ar
    40     4     8    1
@<TRIPOS>MOLECULE
*****
 37 40 0 0 0
SMALL
GASTEIGER

@<TRIPOS>ATOM
      1 C          62.9097   84.9008   12.8777 C.3     1  UNL1        0.1338
      2 C          62.5689   83.6342   13.6054 C.2     1  UNL1        0.0732
      3 C          62.7787   83.8712   15.0716 C.2     1  UNL1        0.1887
      4 O          62.5570   82.8707   16.1670 O.2     1  UNL1       -0.5020
      5 C          63.2493   85.2843   15.2501 C.2     1  UNL1        0.2869
      6 O          63.5807   85.9449   16.5553 O.2     1  UNL1       -0.2662
      7 N          63.3303   85.9206   13.8942 N.am    1  UNL1       -0.2463
      8 H          62.2602   82.0066   15.9592 H       1  UNL1        0.2924
      9 C          61.8211   86.0447   10.8145 C.ar    1  UNL1        0.1366
     10 C          61.7533   86.2547    9.3309 C.ar    1  UNL1        0.0366
     11 C          62.7064   85.5309    8.4267 C.ar    1  UNL1        0.0031
     12 C          63.7273   84.5971    9.0061 C.ar    1  UNL1       -0.0001
     13 C          63.7951   84.3870   10.4897 C.ar    1  UNL1        0.0007
     14 C          62.8420   85.1108   11.3940 C.ar    1  UNL1        0.0344
     15 O          60.8680   86.7685   11.7189 O.3     1  UNL1       -0.4701
     16 C          59.9484   87.8125   11.1581 C.3     1  UNL1        0.2693
     17 C          59.6066   89.0258   11.9712 C.3     1  UNL1        0.3030
     18 C          61.0381   90.7429   10.6474 C.3     1  UNL1        0.3199
     19 S          59.7782   90.3952   11.3836 S.O     1  UNL1        0.0397
     20 O          58.6900   91.4168   11.5322 O.co2   1  UNL1       -0.6811
     21 C          63.7569   87.3294   13.6055 C.ar    1  UNL1        0.0548
     22 C          64.5942   88.0781   14.5995 C.ar    1  UNL1        0.0149
     23 C          65.0208   89.4869   14.3108 C.ar    1  UNL1        0.0013
     24 C          64.6100   90.1470   13.0280 C.ar    1  UNL1        0.0006
     25 C          63.7726   89.3982   12.0338 C.ar    1  UNL1        0.0013
     26 C          63.3461   87.9894   12.3227 C.ar    1  UNL1        0.0149
     27 C          65.0366   91.5557   12.7393 C.ar    1  UNL1        0.0070
     28 C          64.7852   92.3099   11.4673 C.ar    1  UNL1        0.0075
     29 C          65.3827   93.6779   11.6137 C.ar    1  UNL1        0.0355
     30 S          66.0034   93.7693   12.9762 S.2     1  UNL1       -0.0859
     31 C          65.7894   92.4576   13.6718 C.ar    1  UNL1        0.0354
     32 C          62.1004   82.3552   12.9772 C.2     1  UNL1        0.1732
     33 O          61.4057   82.0595   11.8580 O.2     1  UNL1       -0.2915
     34 C          62.4036   81.0416   13.6346 C.3     1  UNL1        0.0554
     35 C          60.9572   80.8916   14.0023 C.3     1  UNL1        0.0077
     36 C          63.8501   81.1915   13.2670 C.3     1  UNL1        0.0077
     37 C          62.7069   79.7279   14.2921 C.3     1  UNL1        0.0077
@<TRIPOS>UNITY_ATOM_ATTR
19 1
charge 1
20 1
charge -1
@<TRIPOS>BOND
     1    18    19    1
     2    19    20    2
     3    19    17    1
     4    17    16    1
     5    16    15    1
     6    15     9    1
     7     9    10   ar
     8    10    11   ar
     9    11    12   ar
    10    12    13   ar
    11    13    14   ar
    12    14     1    1
    13     1     2    1
    14     2    32    1
    15    32    33    2
    16    32    34    1
    17    34    35    1
    18    34    36    1
    19    34    37    1
    20     2     3    2
    21     3     4    1
    22     3     5    1
    23     5     6    2
    24     5     7   am
    25     7    21    1
    26    21    22   ar
    27    22    23   ar
    28    23    24   ar
    29    24    27    1
    30    27    28   ar
    31    28    29   ar
    32    29    30   ar
    33    30    31   ar
    34    24    25   ar
    35    25    26   ar
    36    14     9   ar
    37     7     1    1
    38    26    21   ar
    39    31    27   ar
    40     4     8    1
@<TRIPOS>MOLECULE
*****
 37 40 0 0 0
SMALL
GASTEIGER

@<TRIPOS>ATOM
      1 C          61.5212   95.7830   -1.7050 C.3     1  UNL1        0.1338
      2 C          62.9487   95.9258   -2.1432 C.2     1  UNL1        0.0732
      3 C          62.9518   96.3429   -3.5840 C.2     1  UNL1        0.1887
      4 O          64.1671   96.5999   -4.4248 O.2     1  UNL1       -0.5020
      5 C          61.5262   96.4579   -4.0364 C.2     1  UNL1        0.2869
      6 O          61.0657   96.8501   -5.4090 O.2     1  UNL1       -0.2662
      7 N          60.6421   96.1118   -2.8751 N.am    1  UNL1       -0.2463
      8 H          65.0222   96.5023   -4.0545 H       1  UNL1        0.2924
      9 C          60.5885   93.9785   -0.0852 C.ar    1  UNL1        0.1366
     10 C          60.1220   93.5772    1.2827 C.ar    1  UNL1        0.0366
     11 C          60.1218   94.5792    2.3989 C.ar    1  UNL1        0.0031
     12 C          60.5880   95.9825    2.1471 C.ar    1  UNL1       -0.0001
     13 C          61.0545   96.3838    0.7792 C.ar    1  UNL1        0.0007
     14 C          61.0547   95.3818   -0.3370 C.ar    1  UNL1        0.0344
     15 O          60.5887   92.9764   -1.2015 O.3     1  UNL1       -0.4701
     16 C          59.3507   92.7680   -2.0225 C.3     1  UNL1        0.2693
     17 C          58.0022   92.7949   -1.3662 C.3     1  UNL1        0.3030
     18 C          56.9203   91.8544   -3.5331 C.3     1  UNL1        0.3199
     19 S          56.7805   92.4100   -2.1467 S.O     1  UNL1        0.0397
     20 O          55.4189   92.5806   -1.5410 O.co2   1  UNL1       -0.6811
     21 C          59.1422   96.0972   -2.8826 C.ar    1  UNL1        0.0548
     22 C          58.4031   95.5800   -4.0810 C.ar    1  UNL1        0.0149
     23 C          56.9032   95.5653   -4.0885 C.ar    1  UNL1        0.0013
     24 C          56.1423   96.0679   -2.8975 C.ar    1  UNL1        0.0006
     25 C          56.8814   96.5852   -1.6990 C.ar    1  UNL1        0.0013
     26 C          58.3813   96.5998   -1.6916 C.ar    1  UNL1        0.0149
     27 C          54.6424   96.0533   -2.9050 C.ar    1  UNL1        0.0070
     28 C          53.7585   95.6911   -1.7485 C.ar    1  UNL1        0.0075
     29 C          52.3329   95.8122   -2.1990 C.ar    1  UNL1        0.0355
     30 S          52.3357   96.2492   -3.6340 S.2     1  UNL1       -0.0859
     31 C          53.7632   96.3982   -4.0702 C.ar    1  UNL1        0.0354
     32 C          64.1603   95.6925   -1.2902 C.2     1  UNL1        0.1732
     33 O          65.3174   96.3620   -1.1015 O.2     1  UNL1       -0.2915
     34 C          64.2318   94.4853   -0.4029 C.3     1  UNL1        0.0554
     35 C          64.4623   95.3718    0.7848 C.3     1  UNL1        0.0077
     36 C          64.0013   93.5986   -1.5907 C.3     1  UNL1        0.0077
     37 C          64.3033   93.2780    0.4844 C.3     1  UNL1        0.0077
@<TRIPOS>UNITY_ATOM_ATTR
19 1
charge 1
20 1
charge -1
@<TRIPOS>BOND
     1    18    19    1
     2    19    20    2
     3    19    17    1
     4    17    16    1
     5    16    15    1
     6    15     9    1
     7     9    10   ar
     8    10    11   ar
     9    11    12   ar
    10    12    13   ar
    11    13    14   ar
    12    14     1    1
    13     1     2    1
    14     2    32    1
    15    32    33    2
    16    32    34    1
    17    34    35    1
    18    34    36    1
    19    34    37    1
    20     2     3    2
    21     3     4    1
    22     3     5    1
    23     5     6    2
    24     5     7   am
    25     7    21    1
    26    21    22   ar
    27    22    23   ar
    28    23    24   ar
    29    24    27    1
    30    27    28   ar
    31    28    29   ar
    32    29    30   ar
    33    30    31   ar
    34    24    25   ar
    35    25    26   ar
    36    14     9   ar
    37     7     1    1
    38    26    21   ar
    39    31    27   ar
    40     4     8    1
