@<TRIPOS>MOLECULE
*****
 30 32 0 0 0
SMALL
GASTEIGER

@<TRIPOS>ATOM
      1 C          60.6279   88.0114    9.7074 C.3     1  UNL1        0.2320
      2 C          61.5017   86.7988    9.8349 C.ar    1  UNL1        0.0209
      3 C          62.2893   86.3144    8.6538 C.ar    1  UNL1       -0.0007
      4 C          63.1631   85.1019    8.7812 C.ar    1  UNL1       -0.0005
      5 C          63.2493   84.3738   10.0898 C.ar    1  UNL1       -0.0029
      6 C          62.4617   84.8581   11.2709 C.ar    1  UNL1       -0.0063
      7 C          61.5879   86.0707   11.1435 C.ar    1  UNL1       -0.0036
      8 C          62.5479   84.1300   12.5795 C.3     1  UNL1        0.0992
      9 N          63.8400   83.4954   13.0010 N.3     1  UNL1       -0.2677
     10 C          64.8433   84.2870   13.7863 C.3     1  UNL1        0.0899
     11 C          64.1288   82.0691   12.6372 C.3     1  UNL1        0.0726
     12 C          63.0167   81.1712   12.1822 C.3     1  UNL1        0.0231
     13 C          62.2701   80.3371   13.1806 C.3     1  UNL1        0.0737
     14 C          61.3097   80.9870   14.1321 C.3     1  UNL1        0.3186
     15 F          61.7554   82.1472   14.9720 F       1  UNL1       -0.1984
     16 F          59.9036   80.4767   14.2437 F       1  UNL1       -0.1984
     17 O          61.2436   89.3571    9.4625 O.3     1  UNL1       -0.4705
     18 C          66.9252   93.3885   14.0688 C.3     1  UNL1        0.0375
     19 C          65.9712   92.8067   13.0679 C.ar    1  UNL1        0.0503
     20 C          65.0592   91.6842   13.4657 C.ar    1  UNL1       -0.0167
     21 C          65.1011   91.1434   14.8642 C.3     1  UNL1        0.0310
     22 C          64.1053   91.1024   12.4649 C.ar    1  UNL1        0.0308
     23 C          63.1933   89.9799   12.8626 C.ar    1  UNL1        0.0058
     24 C          62.2394   89.3981   11.8618 C.ar    1  UNL1        0.0371
     25 C          62.1975   89.9389   10.4633 C.ar    1  UNL1        0.1421
     26 C          63.1095   91.0614   10.0655 C.ar    1  UNL1        0.0745
     27 C          64.0634   91.6431   11.0663 C.ar    1  UNL1        0.1514
     28 O          64.9754   92.7657   10.6686 O.2     1  UNL1       -0.4212
     29 C          65.9293   93.3474   11.6694 C.ar    1  UNL1        0.3414
     30 O          66.8414   94.4700   11.2717 O.2     1  UNL1       -0.2448
@<TRIPOS>BOND
     1    18    19    1
     2    19    20   ar
     3    20    21    1
     4    20    22   ar
     5    22    23   ar
     6    23    24   ar
     7    24    25   ar
     8    25    17    1
     9    17     1    1
    10     1     2    1
    11     2     3   ar
    12     3     4   ar
    13     4     5   ar
    14     5     6   ar
    15     6     8    1
    16     8     9    1
    17     9    10    1
    18     9    11    1
    19    11    12    1
    20    12    13    1
    21    13    14    1
    22    14    15    1
    23    14    16    1
    24     6     7   ar
    25    25    26   ar
    26    26    27   ar
    27    27    28   ar
    28    28    29   ar
    29    29    30    2
    30    29    19   ar
    31    27    22   ar
    32     7     2   ar
@<TRIPOS>MOLECULE
*****
 30 32 0 0 0
SMALL
GASTEIGER

@<TRIPOS>ATOM
      1 C          60.8541   87.7679   10.0349 C.3     1  UNL1        0.2320
      2 C          61.6995   86.5291   10.0083 C.ar    1  UNL1        0.0209
      3 C          62.4306   86.1468    8.7556 C.ar    1  UNL1       -0.0007
      4 C          63.2760   84.9080    8.7290 C.ar    1  UNL1       -0.0005
      5 C          63.3903   84.0516    9.9552 C.ar    1  UNL1       -0.0029
      6 C          62.6593   84.4339   11.2079 C.ar    1  UNL1       -0.0063
      7 C          61.8139   85.6726   11.2344 C.ar    1  UNL1       -0.0036
      8 C          62.7736   83.5775   12.4340 C.3     1  UNL1        0.0992
      9 N          63.0802   84.2052   13.7614 N.3     1  UNL1       -0.2677
     10 C          62.2392   83.8757   14.9590 C.3     1  UNL1        0.0899
     11 C          64.2278   85.1624   13.8912 C.3     1  UNL1        0.0726
     12 C          64.5125   85.8175   15.2101 C.3     1  UNL1        0.0231
     13 C          63.9544   87.1776   15.5078 C.3     1  UNL1        0.0737
     14 C          63.1976   87.4156   16.7809 C.3     1  UNL1        0.3186
     15 F          63.3181   88.7318   17.4902 F       1  UNL1       -0.1984
     16 F          62.3203   86.3374   17.3446 F       1  UNL1       -0.1984
     17 O          61.4636   89.0990    9.7084 O.3     1  UNL1       -0.4705
     18 C          66.9440   93.5691   14.1508 C.3     1  UNL1        0.0375
     19 C          66.0096   92.9132   13.1777 C.ar    1  UNL1        0.0503
     20 C          65.2009   91.7227   13.6006 C.ar    1  UNL1       -0.0167
     21 C          65.3265   91.1882   14.9965 C.3     1  UNL1        0.0310
     22 C          64.2666   91.0668   12.6275 C.ar    1  UNL1        0.0308
     23 C          63.4579   89.8764   13.0504 C.ar    1  UNL1        0.0058
     24 C          62.5236   89.2205   12.0774 C.ar    1  UNL1        0.0371
     25 C          62.3980   89.7550   10.6815 C.ar    1  UNL1        0.1421
     26 C          63.2067   90.9454   10.2586 C.ar    1  UNL1        0.0745
     27 C          64.1410   91.6013   11.2317 C.ar    1  UNL1        0.1514
     28 O          64.9497   92.7918   10.8088 O.2     1  UNL1       -0.4212
     29 C          65.8840   93.4477   11.7818 C.ar    1  UNL1        0.3414
     30 O          66.6928   94.6382   11.3590 O.2     1  UNL1       -0.2448
@<TRIPOS>BOND
     1    18    19    1
     2    19    20   ar
     3    20    21    1
     4    20    22   ar
     5    22    23   ar
     6    23    24   ar
     7    24    25   ar
     8    25    17    1
     9    17     1    1
    10     1     2    1
    11     2     3   ar
    12     3     4   ar
    13     4     5   ar
    14     5     6   ar
    15     6     8    1
    16     8     9    1
    17     9    10    1
    18     9    11    1
    19    11    12    1
    20    12    13    1
    21    13    14    1
    22    14    15    1
    23    14    16    1
    24     6     7   ar
    25    25    26   ar
    26    26    27   ar
    27    27    28   ar
    28    28    29   ar
    29    29    30    2
    30    29    19   ar
    31    27    22   ar
    32     7     2   ar
@<TRIPOS>MOLECULE
*****
 30 32 0 0 0
SMALL
GASTEIGER

@<TRIPOS>ATOM
      1 C          60.4382   87.3889   10.3154 C.3     1  UNL1        0.2320
      2 C          61.4819   86.3347   10.0929 C.ar    1  UNL1        0.0209
      3 C          61.9775   86.0509    8.7059 C.ar    1  UNL1       -0.0007
      4 C          63.0213   84.9969    8.4835 C.ar    1  UNL1       -0.0005
      5 C          63.5694   84.2266    9.6481 C.ar    1  UNL1       -0.0029
      6 C          63.0738   84.5103   11.0351 C.ar    1  UNL1       -0.0063
      7 C          62.0301   85.5644   11.2575 C.ar    1  UNL1       -0.0036
      8 C          63.6219   83.7400   12.1996 C.3     1  UNL1        0.0992
      9 N          62.6869   83.0763   13.1667 N.3     1  UNL1       -0.2677
     10 C          62.1982   81.6832   12.9014 C.3     1  UNL1        0.0899
     11 C          62.2406   83.8057   14.3992 C.3     1  UNL1        0.0726
     12 C          63.2133   84.0636   15.5115 C.3     1  UNL1        0.0231
     13 C          63.6825   85.4611   15.7884 C.3     1  UNL1        0.0737
     14 C          64.7256   86.0895   14.9124 C.3     1  UNL1        0.3186
     15 F          66.0089   85.3639   14.6357 F       1  UNL1       -0.1984
     16 F          64.4853   87.4435   14.3132 F       1  UNL1       -0.1984
     17 O          60.5455   88.3143   11.4910 O.3     1  UNL1       -0.4705
     18 C          66.8619   93.5110   13.1786 C.3     1  UNL1        0.0375
     19 C          65.7364   92.5223   13.1027 C.ar    1  UNL1        0.0503
     20 C          65.0474   92.2692   11.7946 C.ar    1  UNL1       -0.0167
     21 C          65.4839   93.0047   10.5624 C.3     1  UNL1        0.0310
     22 C          63.9219   91.2804   11.7187 C.ar    1  UNL1        0.0308
     23 C          63.2329   91.0273   10.4106 C.ar    1  UNL1        0.0058
     24 C          62.1075   90.0386   10.3347 C.ar    1  UNL1        0.0371
     25 C          61.6710   89.3030   11.5669 C.ar    1  UNL1        0.1421
     26 C          62.3600   89.5561   12.8751 C.ar    1  UNL1        0.0745
     27 C          63.4854   90.5448   12.9509 C.ar    1  UNL1        0.1514
     28 O          64.1745   90.7980   14.2591 O.2     1  UNL1       -0.4212
     29 C          65.2999   91.7867   14.3349 C.ar    1  UNL1        0.3414
     30 O          65.9890   92.0399   15.6431 O.2     1  UNL1       -0.2448
@<TRIPOS>BOND
     1    18    19    1
     2    19    20   ar
     3    20    21    1
     4    20    22   ar
     5    22    23   ar
     6    23    24   ar
     7    24    25   ar
     8    25    17    1
     9    17     1    1
    10     1     2    1
    11     2     3   ar
    12     3     4   ar
    13     4     5   ar
    14     5     6   ar
    15     6     8    1
    16     8     9    1
    17     9    10    1
    18     9    11    1
    19    11    12    1
    20    12    13    1
    21    13    14    1
    22    14    15    1
    23    14    16    1
    24     6     7   ar
    25    25    26   ar
    26    26    27   ar
    27    27    28   ar
    28    28    29   ar
    29    29    30    2
    30    29    19   ar
    31    27    22   ar
    32     7     2   ar
@<TRIPOS>MOLECULE
*****
 30 32 0 0 0
SMALL
GASTEIGER

@<TRIPOS>ATOM
      1 C          61.3949   89.4742   10.3315 C.3     1  UNL1        0.2320
      2 C          62.5531   90.2024   10.9468 C.ar    1  UNL1        0.0209
      3 C          63.1819   91.3572   10.2251 C.ar    1  UNL1       -0.0007
      4 C          64.3400   92.0853   10.8404 C.ar    1  UNL1       -0.0005
      5 C          64.8693   91.6584   12.1774 C.ar    1  UNL1       -0.0029
      6 C          64.2406   90.5036   12.8991 C.ar    1  UNL1       -0.0063
      7 C          63.0825   89.7755   12.2838 C.ar    1  UNL1       -0.0036
      8 C          64.7700   90.0767   14.2361 C.3     1  UNL1        0.0992
      9 N          64.1734   90.6377   15.4928 N.3     1  UNL1       -0.2677
     10 C          63.2273   89.8081   16.3093 C.3     1  UNL1        0.0899
     11 C          64.5230   92.0284   15.9332 C.3     1  UNL1        0.0726
     12 C          65.9593   92.4148   16.1276 C.3     1  UNL1        0.0231
     13 C          66.7129   93.0838   15.0166 C.3     1  UNL1        0.0737
     14 C          67.9673   92.4608   14.4796 C.3     1  UNL1        0.3186
     15 F          67.9060   91.5714   13.2733 F       1  UNL1       -0.1984
     16 F          69.2830   92.7271   15.1490 F       1  UNL1       -0.1984
     17 O          61.6412   88.3613    9.3564 O.3     1  UNL1       -0.4705
     18 C          63.7090   81.2830   13.2772 C.3     1  UNL1        0.0375
     19 C          63.2671   82.6288   12.7834 C.ar    1  UNL1        0.0503
     20 C          63.4085   82.9784   11.3316 C.ar    1  UNL1       -0.0167
     21 C          63.9917   81.9824   10.3736 C.3     1  UNL1        0.0310
     22 C          62.9667   84.3242   10.8378 C.ar    1  UNL1        0.0308
     23 C          63.1080   84.6738    9.3860 C.ar    1  UNL1        0.0058
     24 C          62.6662   86.0195    8.8923 C.ar    1  UNL1        0.0371
     25 C          62.0830   87.0156    9.8503 C.ar    1  UNL1        0.1421
     26 C          61.9417   86.6659   11.3020 C.ar    1  UNL1        0.0745
     27 C          62.3835   85.3202   11.7958 C.ar    1  UNL1        0.1514
     28 O          62.2421   84.9705   13.2477 O.2     1  UNL1       -0.4212
     29 C          62.6839   83.6248   13.7414 C.ar    1  UNL1        0.3414
     30 O          62.5426   83.2751   15.1933 O.2     1  UNL1       -0.2448
@<TRIPOS>BOND
     1    18    19    1
     2    19    20   ar
     3    20    21    1
     4    20    22   ar
     5    22    23   ar
     6    23    24   ar
     7    24    25   ar
     8    25    17    1
     9    17     1    1
    10     1     2    1
    11     2     3   ar
    12     3     4   ar
    13     4     5   ar
    14     5     6   ar
    15     6     8    1
    16     8     9    1
    17     9    10    1
    18     9    11    1
    19    11    12    1
    20    12    13    1
    21    13    14    1
    22    14    15    1
    23    14    16    1
    24     6     7   ar
    25    25    26   ar
    26    26    27   ar
    27    27    28   ar
    28    28    29   ar
    29    29    30    2
    30    29    19   ar
    31    27    22   ar
    32     7     2   ar
@<TRIPOS>MOLECULE
*****
 30 32 0 0 0
SMALL
GASTEIGER

@<TRIPOS>ATOM
      1 C          61.5466   89.7451   10.6855 C.3     1  UNL1        0.2320
      2 C          62.7679   90.4875   11.1409 C.ar    1  UNL1        0.0209
      3 C          63.3711   91.5468   10.2669 C.ar    1  UNL1       -0.0007
      4 C          64.5924   92.2891   10.7223 C.ar    1  UNL1       -0.0005
      5 C          65.2105   91.9721   12.0518 C.ar    1  UNL1       -0.0029
      6 C          64.6073   90.9127   12.9258 C.ar    1  UNL1       -0.0063
      7 C          63.3860   90.1704   12.4704 C.ar    1  UNL1       -0.0036
      8 C          65.2253   90.5957   14.2553 C.3     1  UNL1        0.0992
      9 N          64.7826   91.3343   15.4834 N.3     1  UNL1       -0.2677
     10 C          65.5315   92.5524   15.9368 C.3     1  UNL1        0.0899
     11 C          63.5910   90.8549   16.2583 C.3     1  UNL1        0.0726
     12 C          63.0814   89.4578   16.0621 C.3     1  UNL1        0.0231
     13 C          63.1222   88.4784   17.1974 C.3     1  UNL1        0.0737
     14 C          63.0362   87.0064   16.9215 C.3     1  UNL1        0.3186
     15 F          62.0035   86.1717   17.6190 F       1  UNL1       -0.1984
     16 F          63.9830   86.3693   15.9480 F       1  UNL1       -0.1984
     17 O          61.6689   88.6583    9.6589 O.3     1  UNL1       -0.4705
     18 C          63.7208   81.3601   13.1626 C.3     1  UNL1        0.0375
     19 C          63.2929   82.7373   12.7497 C.ar    1  UNL1        0.0503
     20 C          63.3806   83.1499   11.3103 C.ar    1  UNL1       -0.0167
     21 C          63.8963   82.1854   10.2837 C.3     1  UNL1        0.0310
     22 C          62.9527   84.5270   10.8974 C.ar    1  UNL1        0.0308
     23 C          63.0404   84.9397    9.4580 C.ar    1  UNL1        0.0058
     24 C          62.6125   86.3167    9.0452 C.ar    1  UNL1        0.0371
     25 C          62.0968   87.2812   10.0718 C.ar    1  UNL1        0.1421
     26 C          62.0090   86.8686   11.5112 C.ar    1  UNL1        0.0745
     27 C          62.4370   85.4915   11.9240 C.ar    1  UNL1        0.1514
     28 O          62.3492   85.0788   13.3635 O.2     1  UNL1       -0.4212
     29 C          62.7772   83.7017   13.7763 C.ar    1  UNL1        0.3414
     30 O          62.6894   83.2890   15.2158 O.2     1  UNL1       -0.2448
@<TRIPOS>BOND
     1    18    19    1
     2    19    20   ar
     3    20    21    1
     4    20    22   ar
     5    22    23   ar
     6    23    24   ar
     7    24    25   ar
     8    25    17    1
     9    17     1    1
    10     1     2    1
    11     2     3   ar
    12     3     4   ar
    13     4     5   ar
    14     5     6   ar
    15     6     8    1
    16     8     9    1
    17     9    10    1
    18     9    11    1
    19    11    12    1
    20    12    13    1
    21    13    14    1
    22    14    15    1
    23    14    16    1
    24     6     7   ar
    25    25    26   ar
    26    26    27   ar
    27    27    28   ar
    28    28    29   ar
    29    29    30    2
    30    29    19   ar
    31    27    22   ar
    32     7     2   ar
@<TRIPOS>MOLECULE
*****
 30 32 0 0 0
SMALL
GASTEIGER

@<TRIPOS>ATOM
      1 C          61.0967   89.4819   10.0732 C.3     1  UNL1        0.2320
      2 C          62.1576   90.0816   10.9479 C.ar    1  UNL1        0.0209
      3 C          62.2313   89.7102   12.3993 C.ar    1  UNL1       -0.0007
      4 C          63.2921   90.3099   13.2739 C.ar    1  UNL1       -0.0005
      5 C          64.2792   91.2810   12.6971 C.ar    1  UNL1       -0.0029
      6 C          64.2055   91.6523   11.2457 C.ar    1  UNL1       -0.0063
      7 C          63.1446   91.0526   10.3711 C.ar    1  UNL1       -0.0036
      8 C          65.1925   92.6234   10.6690 C.3     1  UNL1        0.0992
      9 N          66.6076   92.6390   11.1663 N.3     1  UNL1       -0.2677
     10 C          67.7399   92.3915   10.2141 C.3     1  UNL1        0.0899
     11 C          66.8903   92.9019   12.6158 C.3     1  UNL1        0.0726
     12 C          67.7350   91.9429   13.4011 C.3     1  UNL1        0.0231
     13 C          67.4159   91.6677   14.8407 C.3     1  UNL1        0.0737
     14 C          67.1840   92.8069   15.7886 C.3     1  UNL1        0.3186
     15 F          68.0810   94.0085   15.7508 F       1  UNL1       -0.1984
     16 F          66.0551   92.7445   16.7743 F       1  UNL1       -0.1984
     17 O          61.4444   88.3716    9.1265 O.3     1  UNL1       -0.4705
     18 C          63.8046   81.4995   13.2443 C.3     1  UNL1        0.0375
     19 C          63.3036   82.8095   12.7122 C.ar    1  UNL1        0.0503
     20 C          63.4488   83.1318   11.2545 C.ar    1  UNL1       -0.0167
     21 C          64.0950   82.1442   10.3288 C.3     1  UNL1        0.0310
     22 C          62.9477   84.4418   10.7225 C.ar    1  UNL1        0.0308
     23 C          63.0929   84.7641    9.2648 C.ar    1  UNL1        0.0058
     24 C          62.5918   86.0740    8.7328 C.ar    1  UNL1        0.0371
     25 C          61.9455   87.0616    9.6586 C.ar    1  UNL1        0.1421
     26 C          61.8003   86.7393   11.1163 C.ar    1  UNL1        0.0745
     27 C          62.3014   85.4294   11.6482 C.ar    1  UNL1        0.1514
     28 O          62.1562   85.1070   13.1060 O.2     1  UNL1       -0.4212
     29 C          62.6573   83.7971   13.6380 C.ar    1  UNL1        0.3414
     30 O          62.5121   83.4747   15.0958 O.2     1  UNL1       -0.2448
@<TRIPOS>BOND
     1    18    19    1
     2    19    20   ar
     3    20    21    1
     4    20    22   ar
     5    22    23   ar
     6    23    24   ar
     7    24    25   ar
     8    25    17    1
     9    17     1    1
    10     1     2    1
    11     2     3   ar
    12     3     4   ar
    13     4     5   ar
    14     5     6   ar
    15     6     8    1
    16     8     9    1
    17     9    10    1
    18     9    11    1
    19    11    12    1
    20    12    13    1
    21    13    14    1
    22    14    15    1
    23    14    16    1
    24     6     7   ar
    25    25    26   ar
    26    26    27   ar
    27    27    28   ar
    28    28    29   ar
    29    29    30    2
    30    29    19   ar
    31    27    22   ar
    32     7     2   ar
@<TRIPOS>MOLECULE
*****
 30 32 0 0 0
SMALL
GASTEIGER

@<TRIPOS>ATOM
      1 C          64.9708   85.1261   14.3276 C.3     1  UNL1        0.2320
      2 C          64.3021   86.1247   15.2253 C.ar    1  UNL1        0.0209
      3 C          63.5830   85.6619   16.4576 C.ar    1  UNL1       -0.0007
      4 C          62.9144   86.6604   17.3553 C.ar    1  UNL1       -0.0005
      5 C          62.9649   88.1217   17.0207 C.ar    1  UNL1       -0.0029
      6 C          63.6841   88.5845   15.7884 C.ar    1  UNL1       -0.0063
      7 C          64.3527   87.5860   14.8907 C.ar    1  UNL1       -0.0036
      8 C          63.7346   90.0458   15.4538 C.3     1  UNL1        0.0992
      9 N          64.2796   90.4937   14.1301 N.3     1  UNL1       -0.2677
     10 C          63.5109   90.2207   12.8713 C.3     1  UNL1        0.0899
     11 C          65.5934   91.2148   14.0651 C.3     1  UNL1        0.0726
     12 C          65.9849   92.1607   15.1614 C.3     1  UNL1        0.0231
     13 C          67.0588   93.1806   14.9240 C.3     1  UNL1        0.0737
     14 C          68.1836   93.3278   15.9056 C.3     1  UNL1        0.3186
     15 F          68.7028   92.1256   16.6370 F       1  UNL1       -0.1984
     16 F          68.7889   94.6772   16.1557 F       1  UNL1       -0.1984
     17 O          64.1425   84.2140   13.4720 O.3     1  UNL1       -0.4705
     18 C          59.6789   88.2988    7.7152 C.3     1  UNL1        0.0375
     19 C          60.4329   87.7469    8.8887 C.ar    1  UNL1        0.0503
     20 C          61.1266   86.4216    8.7783 C.ar    1  UNL1       -0.0167
     21 C          61.0664   85.6481    7.4945 C.3     1  UNL1        0.0310
     22 C          61.8806   85.8696    9.9517 C.ar    1  UNL1        0.0308
     23 C          62.5744   84.5443    9.8414 C.ar    1  UNL1        0.0058
     24 C          63.3283   83.9925   11.0148 C.ar    1  UNL1        0.0371
     25 C          63.3885   84.7659   12.2986 C.ar    1  UNL1        0.1421
     26 C          62.6948   86.0912   12.4090 C.ar    1  UNL1        0.0745
     27 C          61.9408   86.6431   11.2355 C.ar    1  UNL1        0.1514
     28 O          61.2470   87.9685   11.3459 O.2     1  UNL1       -0.4212
     29 C          60.4931   88.5203   10.1725 C.ar    1  UNL1        0.3414
     30 O          59.7992   89.8457   10.2828 O.2     1  UNL1       -0.2448
@<TRIPOS>BOND
     1    18    19    1
     2    19    20   ar
     3    20    21    1
     4    20    22   ar
     5    22    23   ar
     6    23    24   ar
     7    24    25   ar
     8    25    17    1
     9    17     1    1
    10     1     2    1
    11     2     3   ar
    12     3     4   ar
    13     4     5   ar
    14     5     6   ar
    15     6     8    1
    16     8     9    1
    17     9    10    1
    18     9    11    1
    19    11    12    1
    20    12    13    1
    21    13    14    1
    22    14    15    1
    23    14    16    1
    24     6     7   ar
    25    25    26   ar
    26    26    27   ar
    27    27    28   ar
    28    28    29   ar
    29    29    30    2
    30    29    19   ar
    31    27    22   ar
    32     7     2   ar
@<TRIPOS>MOLECULE
*****
 30 32 0 0 0
SMALL
GASTEIGER

@<TRIPOS>ATOM
      1 C          65.1475   85.0674   14.5447 C.3     1  UNL1        0.2320
      2 C          64.3882   86.0460   15.3909 C.ar    1  UNL1        0.0209
      3 C          63.6353   85.5683   16.5972 C.ar    1  UNL1       -0.0007
      4 C          62.8760   86.5469   17.4433 C.ar    1  UNL1       -0.0005
      5 C          62.8696   88.0030   17.0831 C.ar    1  UNL1       -0.0029
      6 C          63.6224   88.4806   15.8769 C.ar    1  UNL1       -0.0063
      7 C          64.3817   87.5021   15.0308 C.ar    1  UNL1       -0.0036
      8 C          63.6160   89.9367   15.5168 C.3     1  UNL1        0.0992
      9 N          64.3472   90.4106   14.2958 N.3     1  UNL1       -0.2677
     10 C          65.7700   90.8725   14.4058 C.3     1  UNL1        0.0899
     11 C          63.6555   90.4225   12.9648 C.3     1  UNL1        0.0726
     12 C          64.1087   91.3685   11.8926 C.3     1  UNL1        0.0231
     13 C          63.4589   91.3370   10.5410 C.3     1  UNL1        0.0737
     14 C          62.4247   90.2958   10.2301 C.3     1  UNL1        0.3186
     15 F          62.8480   88.9313    9.7730 F       1  UNL1       -0.1984
     16 F          60.9673   90.6192   10.3763 F       1  UNL1       -0.1984
     17 O          64.4080   84.0435   13.7357 O.3     1  UNL1       -0.4705
     18 C          59.8957   87.0792    7.3973 C.3     1  UNL1        0.0375
     19 C          60.5800   86.6778    8.6704 C.ar    1  UNL1        0.0503
     20 C          61.6711   85.6489    8.6433 C.ar    1  UNL1       -0.0167
     21 C          62.0780   85.0213    7.3431 C.3     1  UNL1        0.0310
     22 C          62.3554   85.2475    9.9164 C.ar    1  UNL1        0.0308
     23 C          63.4465   84.2186    9.8893 C.ar    1  UNL1        0.0058
     24 C          64.1306   83.8173   11.1623 C.ar    1  UNL1        0.0371
     25 C          63.7237   84.4449   12.4626 C.ar    1  UNL1        0.1421
     26 C          62.6326   85.4738   12.4897 C.ar    1  UNL1        0.0745
     27 C          61.9484   85.8751   11.2166 C.ar    1  UNL1        0.1514
     28 O          60.8573   86.9041   11.2437 O.2     1  UNL1       -0.4212
     29 C          60.1731   87.3054    9.9706 C.ar    1  UNL1        0.3414
     30 O          59.0819   88.3344    9.9977 O.2     1  UNL1       -0.2448
@<TRIPOS>BOND
     1    18    19    1
     2    19    20   ar
     3    20    21    1
     4    20    22   ar
     5    22    23   ar
     6    23    24   ar
     7    24    25   ar
     8    25    17    1
     9    17     1    1
    10     1     2    1
    11     2     3   ar
    12     3     4   ar
    13     4     5   ar
    14     5     6   ar
    15     6     8    1
    16     8     9    1
    17     9    10    1
    18     9    11    1
    19    11    12    1
    20    12    13    1
    21    13    14    1
    22    14    15    1
    23    14    16    1
    24     6     7   ar
    25    25    26   ar
    26    26    27   ar
    27    27    28   ar
    28    28    29   ar
    29    29    30    2
    30    29    19   ar
    31    27    22   ar
    32     7     2   ar
@<TRIPOS>MOLECULE
*****
 30 32 0 0 0
SMALL
GASTEIGER

@<TRIPOS>ATOM
      1 C          63.3046   88.7631   15.6870 C.3     1  UNL1        0.2320
      2 C          63.7879   89.7023   14.6219 C.ar    1  UNL1        0.0209
      3 C          64.9494   90.6115   14.8944 C.ar    1  UNL1       -0.0007
      4 C          65.4326   91.5507   13.8293 C.ar    1  UNL1       -0.0005
      5 C          64.7545   91.5806   12.4917 C.ar    1  UNL1       -0.0029
      6 C          63.5930   90.6714   12.2192 C.ar    1  UNL1       -0.0063
      7 C          63.1097   89.7322   13.2843 C.ar    1  UNL1       -0.0036
      8 C          62.9148   90.7013   10.8816 C.3     1  UNL1        0.0992
      9 N          61.7219   89.8287   10.6259 N.3     1  UNL1       -0.2677
     10 C          60.3505   90.3028   11.0060 C.3     1  UNL1        0.0899
     11 C          61.9004   88.4819    9.9899 C.3     1  UNL1        0.0726
     12 C          61.9816   87.2530   10.8462 C.3     1  UNL1        0.0231
     13 C          62.2272   85.9144   10.2155 C.3     1  UNL1        0.0737
     14 C          62.2648   85.7847    8.7215 C.3     1  UNL1        0.3186
     15 F          60.9981   85.9002    7.9265 F       1  UNL1       -0.1984
     16 F          63.5692   85.5396    8.0226 F       1  UNL1       -0.1984
     17 O          64.0926   87.5291   16.0127 O.3     1  UNL1       -0.4705
     18 C          62.7576   80.5437   11.6340 C.3     1  UNL1        0.0375
     19 C          63.1388   81.8598   12.2444 C.ar    1  UNL1        0.0503
     20 C          62.5680   82.2646   13.5711 C.ar    1  UNL1       -0.0167
     21 C          61.6161   81.3532   14.2876 C.3     1  UNL1        0.0310
     22 C          62.9492   83.5807   14.1816 C.ar    1  UNL1        0.0308
     23 C          62.3784   83.9855   15.5083 C.ar    1  UNL1        0.0058
     24 C          62.7595   85.3016   16.1187 C.ar    1  UNL1        0.0371
     25 C          63.7115   86.2129   15.4023 C.ar    1  UNL1        0.1421
     26 C          64.2823   85.8082   14.0755 C.ar    1  UNL1        0.0745
     27 C          63.9011   84.4921   13.4652 C.ar    1  UNL1        0.1514
     28 O          64.4719   84.0873   12.1383 O.2     1  UNL1       -0.4212
     29 C          64.0907   82.7712   11.5280 C.ar    1  UNL1        0.3414
     30 O          64.6615   82.3664   10.2011 O.2     1  UNL1       -0.2448
@<TRIPOS>BOND
     1    18    19    1
     2    19    20   ar
     3    20    21    1
     4    20    22   ar
     5    22    23   ar
     6    23    24   ar
     7    24    25   ar
     8    25    17    1
     9    17     1    1
    10     1     2    1
    11     2     3   ar
    12     3     4   ar
    13     4     5   ar
    14     5     6   ar
    15     6     8    1
    16     8     9    1
    17     9    10    1
    18     9    11    1
    19    11    12    1
    20    12    13    1
    21    13    14    1
    22    14    15    1
    23    14    16    1
    24     6     7   ar
    25    25    26   ar
    26    26    27   ar
    27    27    28   ar
    28    28    29   ar
    29    29    30    2
    30    29    19   ar
    31    27    22   ar
    32     7     2   ar
