@<TRIPOS>MOLECULE
*****
 24 26 0 0 0
SMALL
GASTEIGER

@<TRIPOS>ATOM
      1 C          61.6819   88.5999   10.2019 C.3     1  UNL1        0.1410
      2 O          62.8587   88.1032    9.4156 O.3     1  UNL1       -0.3771
      3 H          62.8612   87.1332    9.4152 H       1  UNL1        0.2112
      4 C          62.6090   89.3271   11.1302 C.ar    1  UNL1        0.0070
      5 C          63.0135   88.6985   12.4306 C.ar    1  UNL1       -0.0017
      6 C          63.9406   89.4257   13.3588 C.ar    1  UNL1       -0.0002
      7 C          64.4632   90.7815   12.9866 C.ar    1  UNL1       -0.0000
      8 C          64.0587   91.4102   11.6861 C.ar    1  UNL1       -0.0002
      9 C          63.1316   90.6829   10.7579 C.ar    1  UNL1       -0.0017
     10 C          65.3903   91.5088   13.9149 C.ar    1  UNL1       -0.0000
     11 C          66.6893   92.0554   13.4012 C.ar    1  UNL1       -0.0000
     12 C          67.6164   92.7826   14.3295 C.ar    1  UNL1        0.0000
     13 C          67.2445   92.9632   15.7714 C.ar    1  UNL1        0.0000
     14 C          65.9455   92.4165   16.2850 C.ar    1  UNL1        0.0000
     15 C          65.0184   91.6893   15.3568 C.ar    1  UNL1       -0.0000
     16 C          60.5051   89.0965   10.9882 C.ar    1  UNL1        0.0825
     17 C          59.9635   90.4953   10.9761 C.ar    1  UNL1        0.1157
     18 N          58.7868   90.5449   11.9052 N.ar    1  UNL1       -0.2228
     19 C          58.6013   89.1767   12.4916 C.ar    1  UNL1        0.1749
     20 N          59.6632   88.2816   11.9249 N.ar    1  UNL1       -0.3361
     21 H          59.7860   87.3269   12.1315 H       1  UNL1        0.1673
     22 C          60.6919   86.3742    9.2985 C.3     1  UNL1        0.0031
     23 C          60.7548   87.8727    9.2737 C.3     1  UNL1        0.0340
     24 C          59.8905   88.6440    8.3207 C.3     1  UNL1        0.0031
@<TRIPOS>BOND
     1    22    23    1
     2    23    24    1
     3    23     1    1
     4     1     2    1
     5     1     4    1
     6     4     5   ar
     7     5     6   ar
     8     6     7   ar
     9     7    10    1
    10    10    11   ar
    11    11    12   ar
    12    12    13   ar
    13    13    14   ar
    14    14    15   ar
    15     7     8   ar
    16     8     9   ar
    17     1    16    1
    18    16    17   ar
    19    17    18   ar
    20    18    19   ar
    21    19    20   ar
    22     9     4   ar
    23    20    16   ar
    24    15    10   ar
    25     2     3    1
    26    20    21    1
@<TRIPOS>MOLECULE
*****
 24 26 0 0 0
SMALL
GASTEIGER

@<TRIPOS>ATOM
      1 C          62.7423   82.8748   13.8537 C.3     1  UNL1        0.1410
      2 O          62.1417   83.1053   15.2087 O.3     1  UNL1       -0.3771
      3 H          61.2177   82.8103   15.2072 H       1  UNL1        0.2112
      4 C          63.0357   84.3410   13.7342 C.ar    1  UNL1        0.0070
      5 C          63.8630   85.0280   14.7799 C.ar    1  UNL1       -0.0017
      6 C          64.1564   86.4941   14.6604 C.ar    1  UNL1       -0.0002
      7 C          63.6224   87.2733   13.4952 C.ar    1  UNL1       -0.0000
      8 C          62.7950   86.5863   12.4495 C.ar    1  UNL1       -0.0002
      9 C          62.5017   85.1202   12.5690 C.ar    1  UNL1       -0.0017
     10 C          63.9157   88.7395   13.3757 C.ar    1  UNL1       -0.0000
     11 C          64.7332   89.4289   14.4276 C.ar    1  UNL1       -0.0000
     12 C          65.0266   90.8952   14.3081 C.ar    1  UNL1        0.0000
     13 C          64.5024   91.6719   13.1368 C.ar    1  UNL1        0.0000
     14 C          63.6849   90.9823   12.0849 C.ar    1  UNL1        0.0000
     15 C          63.3916   89.5162   12.2044 C.ar    1  UNL1       -0.0000
     16 C          63.3429   82.6442   12.4987 C.ar    1  UNL1        0.0825
     17 C          64.7062   83.0827   12.0523 C.ar    1  UNL1        0.1157
     18 N          64.8916   82.6442   10.6298 N.ar    1  UNL1       -0.2228
     19 C          63.6428   81.9346   10.1970 C.ar    1  UNL1        0.1749
     20 N          62.6857   81.9347   11.3520 N.ar    1  UNL1       -0.3361
     21 H          61.7845   81.5385   11.3567 H       1  UNL1        0.1673
     22 C          61.0307   80.9346   14.0905 C.3     1  UNL1        0.0031
     23 C          62.4490   81.4086   13.9731 C.3     1  UNL1        0.0340
     24 C          63.5740   80.4164   13.9751 C.3     1  UNL1        0.0031
@<TRIPOS>BOND
     1    22    23    1
     2    23    24    1
     3    23     1    1
     4     1     2    1
     5     1     4    1
     6     4     5   ar
     7     5     6   ar
     8     6     7   ar
     9     7    10    1
    10    10    11   ar
    11    11    12   ar
    12    12    13   ar
    13    13    14   ar
    14    14    15   ar
    15     7     8   ar
    16     8     9   ar
    17     1    16    1
    18    16    17   ar
    19    17    18   ar
    20    18    19   ar
    21    19    20   ar
    22     9     4   ar
    23    20    16   ar
    24    15    10   ar
    25     2     3    1
    26    20    21    1
@<TRIPOS>MOLECULE
*****
 24 26 0 0 0
SMALL
GASTEIGER

@<TRIPOS>ATOM
      1 C          65.3699   92.0697   13.4600 C.3     1  UNL1        0.1410
      2 O          64.5093   91.7747   14.6525 O.3     1  UNL1       -0.3771
      3 H          65.0444   91.3480   15.3398 H       1  UNL1        0.2112
      4 C          64.4765   91.2206   12.6050 C.ar    1  UNL1        0.0070
      5 C          64.0320   91.7166   11.2610 C.ar    1  UNL1       -0.0017
      6 C          63.1386   90.8676   10.4062 C.ar    1  UNL1       -0.0002
      7 C          62.6896   89.5225   10.8953 C.ar    1  UNL1       -0.0000
      8 C          63.1341   89.0265   12.2393 C.ar    1  UNL1       -0.0002
      9 C          64.0275   89.8756   13.0942 C.ar    1  UNL1       -0.0017
     10 C          61.7962   88.6734   10.0404 C.ar    1  UNL1       -0.0000
     11 C          62.0016   87.1887    9.9843 C.ar    1  UNL1       -0.0000
     12 C          61.1082   86.3396    9.1293 C.ar    1  UNL1        0.0000
     13 C          60.0092   86.9754    8.3305 C.ar    1  UNL1        0.0000
     14 C          59.8038   88.4602    8.3866 C.ar    1  UNL1        0.0000
     15 C          60.6972   89.3092    9.2415 C.ar    1  UNL1       -0.0000
     16 C          66.2306   92.3647   12.2675 C.ar    1  UNL1        0.0825
     17 C          67.5734   91.7619   11.9784 C.ar    1  UNL1        0.1157
     18 N          68.0723   92.3390   10.6868 N.ar    1  UNL1       -0.2228
     19 C          67.0378   93.2985   10.1776 C.ar    1  UNL1        0.1749
     20 N          65.8996   93.3144   11.1545 N.ar    1  UNL1       -0.3361
     21 H          65.0794   93.8535   11.0785 H       1  UNL1        0.1673
     22 C          66.6005   94.3172   13.8896 C.3     1  UNL1        0.0031
     23 C          66.2634   92.9187   14.3148 C.3     1  UNL1        0.0340
     24 C          66.8198   92.3694   15.5950 C.3     1  UNL1        0.0031
@<TRIPOS>BOND
     1    22    23    1
     2    23    24    1
     3    23     1    1
     4     1     2    1
     5     1     4    1
     6     4     5   ar
     7     5     6   ar
     8     6     7   ar
     9     7    10    1
    10    10    11   ar
    11    11    12   ar
    12    12    13   ar
    13    13    14   ar
    14    14    15   ar
    15     7     8   ar
    16     8     9   ar
    17     1    16    1
    18    16    17   ar
    19    17    18   ar
    20    18    19   ar
    21    19    20   ar
    22     9     4   ar
    23    20    16   ar
    24    15    10   ar
    25     2     3    1
    26    20    21    1
@<TRIPOS>MOLECULE
*****
 24 26 0 0 0
SMALL
GASTEIGER

@<TRIPOS>ATOM
      1 C          65.3876   92.0461   13.4666 C.3     1  UNL1        0.1410
      2 O          64.5315   91.7424   14.6603 O.3     1  UNL1       -0.3771
      3 H          65.0696   91.3117   15.3429 H       1  UNL1        0.2112
      4 C          64.4919   91.2018   12.6093 C.ar    1  UNL1        0.0070
      5 C          64.0447   89.8538   13.0920 C.ar    1  UNL1       -0.0017
      6 C          63.1490   89.0096   12.2347 C.ar    1  UNL1       -0.0002
      7 C          62.7007   89.5132   10.8948 C.ar    1  UNL1       -0.0000
      8 C          63.1480   90.8611   10.4122 C.ar    1  UNL1       -0.0002
      9 C          64.0436   91.7054   11.2694 C.ar    1  UNL1       -0.0017
     10 C          61.8050   88.6689   10.0375 C.ar    1  UNL1       -0.0000
     11 C          60.6957   89.3073    9.2553 C.ar    1  UNL1       -0.0000
     12 C          59.8001   88.4629    8.3980 C.ar    1  UNL1        0.0000
     13 C          60.0137   86.9801    8.3229 C.ar    1  UNL1        0.0000
     14 C          61.1231   86.3417    9.1052 C.ar    1  UNL1        0.0000
     15 C          62.0187   87.1860    9.9624 C.ar    1  UNL1       -0.0000
     16 C          66.2437   92.3499   12.2730 C.ar    1  UNL1        0.0825
     17 C          67.5863   91.7507   11.9754 C.ar    1  UNL1        0.1157
     18 N          68.0799   92.3366   10.6858 N.ar    1  UNL1       -0.2228
     19 C          67.0423   93.2980   10.1863 C.ar    1  UNL1        0.1749
     20 N          65.9076   93.3062   11.1673 N.ar    1  UNL1       -0.3361
     21 H          65.0863   93.8447   11.0976 H       1  UNL1        0.1673
     22 C          66.6130   94.2939   13.9095 C.3     1  UNL1        0.0031
     23 C          66.2833   92.8905   14.3239 C.3     1  UNL1        0.0340
     24 C          66.8493   92.3314   15.5956 C.3     1  UNL1        0.0031
@<TRIPOS>BOND
     1    22    23    1
     2    23    24    1
     3    23     1    1
     4     1     2    1
     5     1     4    1
     6     4     5   ar
     7     5     6   ar
     8     6     7   ar
     9     7    10    1
    10    10    11   ar
    11    11    12   ar
    12    12    13   ar
    13    13    14   ar
    14    14    15   ar
    15     7     8   ar
    16     8     9   ar
    17     1    16    1
    18    16    17   ar
    19    17    18   ar
    20    18    19   ar
    21    19    20   ar
    22     9     4   ar
    23    20    16   ar
    24    15    10   ar
    25     2     3    1
    26    20    21    1
@<TRIPOS>MOLECULE
*****
 24 26 0 0 0
SMALL
GASTEIGER

@<TRIPOS>ATOM
      1 C          64.4628   90.6875   13.6362 C.3     1  UNL1        0.1410
      2 O          64.9960   91.6636   12.6298 O.3     1  UNL1       -0.3771
      3 H          64.8015   92.5679   12.9219 H       1  UNL1        0.2112
      4 C          63.6008   90.0664   12.5773 C.ar    1  UNL1        0.0070
      5 C          62.9234   90.9334   11.5578 C.ar    1  UNL1       -0.0017
      6 C          62.0614   90.3123   10.4989 C.ar    1  UNL1       -0.0002
      7 C          61.8769   88.8242   10.4596 C.ar    1  UNL1       -0.0000
      8 C          62.5544   87.9572   11.4790 C.ar    1  UNL1       -0.0002
      9 C          63.4163   88.5783   12.5379 C.ar    1  UNL1       -0.0017
     10 C          61.0149   88.2031    9.4006 C.ar    1  UNL1       -0.0000
     11 C          61.0802   86.7254    9.1518 C.ar    1  UNL1       -0.0000
     12 C          60.2182   86.1043    8.0928 C.ar    1  UNL1        0.0000
     13 C          59.2909   86.9610    7.2828 C.ar    1  UNL1        0.0000
     14 C          59.2256   88.4388    7.5317 C.ar    1  UNL1        0.0000
     15 C          60.0876   89.0598    8.5906 C.ar    1  UNL1       -0.0000
     16 C          63.9297   89.7114   14.6426 C.ar    1  UNL1        0.0825
     17 C          64.4864   88.3483   14.9295 C.ar    1  UNL1        0.1157
     18 N          63.6470   87.7214   16.0032 N.ar    1  UNL1       -0.2228
     19 C          62.5716   88.6971   16.3797 C.ar    1  UNL1        0.1749
     20 N          62.7463   89.9269   15.5389 N.ar    1  UNL1       -0.3361
     21 H          62.1832   90.7338   15.5698 H       1  UNL1        0.1673
     22 C          64.6942   91.9349   15.9034 C.3     1  UNL1        0.0031
     23 C          65.3248   91.3085   14.6951 C.3     1  UNL1        0.0340
     24 C          66.8174   91.3032   14.5457 C.3     1  UNL1        0.0031
@<TRIPOS>BOND
     1    22    23    1
     2    23    24    1
     3    23     1    1
     4     1     2    1
     5     1     4    1
     6     4     5   ar
     7     5     6   ar
     8     6     7   ar
     9     7    10    1
    10    10    11   ar
    11    11    12   ar
    12    12    13   ar
    13    13    14   ar
    14    14    15   ar
    15     7     8   ar
    16     8     9   ar
    17     1    16    1
    18    16    17   ar
    19    17    18   ar
    20    18    19   ar
    21    19    20   ar
    22     9     4   ar
    23    20    16   ar
    24    15    10   ar
    25     2     3    1
    26    20    21    1
@<TRIPOS>MOLECULE
*****
 24 26 0 0 0
SMALL
GASTEIGER

@<TRIPOS>ATOM
      1 C          60.8332   88.8947    9.4971 C.3     1  UNL1        0.1410
      2 O          60.2614   90.2227    9.0980 O.3     1  UNL1       -0.3771
      3 H          60.3368   90.3316    8.1371 H       1  UNL1        0.2112
      4 C          61.8234   89.5879   10.3855 C.ar    1  UNL1        0.0070
      5 C          61.8956   89.2401   11.8427 C.ar    1  UNL1       -0.0017
      6 C          62.8857   89.9333   12.7310 C.ar    1  UNL1       -0.0002
      7 C          63.8035   90.9744   12.1620 C.ar    1  UNL1       -0.0000
      8 C          63.7312   91.3223   10.7048 C.ar    1  UNL1       -0.0002
      9 C          62.7411   90.6291    9.8165 C.ar    1  UNL1       -0.0017
     10 C          64.7936   91.6677   13.0504 C.ar    1  UNL1       -0.0000
     11 C          65.5755   92.8381   12.5321 C.ar    1  UNL1       -0.0000
     12 C          66.5656   93.5313   13.4204 C.ar    1  UNL1        0.0000
     13 C          66.7738   93.0541   14.8272 C.ar    1  UNL1        0.0000
     14 C          65.9918   91.8836   15.3456 C.ar    1  UNL1        0.0000
     15 C          65.0018   91.1904   14.4572 C.ar    1  UNL1       -0.0000
     16 C          61.4051   87.5667    9.8961 C.ar    1  UNL1        0.0825
     17 C          62.3744   86.7478    9.0962 C.ar    1  UNL1        0.1157
     18 N          62.6764   85.4993    9.8709 N.ar    1  UNL1       -0.2228
     19 C          61.8937   85.5466   11.1497 C.ar    1  UNL1        0.1749
     20 N          61.1081   86.8243   11.1653 N.ar    1  UNL1       -0.3361
     21 H          60.5036   87.1231   11.8826 H       1  UNL1        0.1673
     22 C          59.2119   86.9144    9.0503 C.3     1  UNL1        0.0031
     23 C          59.8432   88.2015    8.6087 C.3     1  UNL1        0.0340
     24 C          59.4844   88.7952    7.2788 C.3     1  UNL1        0.0031
@<TRIPOS>BOND
     1    22    23    1
     2    23    24    1
     3    23     1    1
     4     1     2    1
     5     1     4    1
     6     4     5   ar
     7     5     6   ar
     8     6     7   ar
     9     7    10    1
    10    10    11   ar
    11    11    12   ar
    12    12    13   ar
    13    13    14   ar
    14    14    15   ar
    15     7     8   ar
    16     8     9   ar
    17     1    16    1
    18    16    17   ar
    19    17    18   ar
    20    18    19   ar
    21    19    20   ar
    22     9     4   ar
    23    20    16   ar
    24    15    10   ar
    25     2     3    1
    26    20    21    1
@<TRIPOS>MOLECULE
*****
 24 26 0 0 0
SMALL
GASTEIGER

@<TRIPOS>ATOM
      1 C          64.3806   90.0095   14.1185 C.3     1  UNL1        0.1410
      2 O          65.5131   90.3637   15.0360 O.3     1  UNL1       -0.3771
      3 H          65.1605   90.6037   15.9072 H       1  UNL1        0.2112
      4 C          64.7995   91.1018   13.1796 C.ar    1  UNL1        0.0070
      5 C          64.1684   91.2078   11.8230 C.ar    1  UNL1       -0.0017
      6 C          64.5873   92.3000   10.8842 C.ar    1  UNL1       -0.0002
      7 C          65.6373   93.2864   11.3020 C.ar    1  UNL1       -0.0000
      8 C          66.2685   93.1804   12.6586 C.ar    1  UNL1       -0.0002
      9 C          65.8495   92.0881   13.5974 C.ar    1  UNL1       -0.0017
     10 C          66.0563   94.3787   10.3631 C.ar    1  UNL1       -0.0000
     11 C          67.0263   94.0859    9.2571 C.ar    1  UNL1       -0.0000
     12 C          67.4452   95.1783    8.3182 C.ar    1  UNL1        0.0000
     13 C          66.8941   96.5633    8.4854 C.ar    1  UNL1        0.0000
     14 C          65.9240   96.8560    9.5916 C.ar    1  UNL1        0.0000
     15 C          65.5052   95.7637   10.5304 C.ar    1  UNL1       -0.0000
     16 C          63.2480   89.6553   13.2010 C.ar    1  UNL1        0.0825
     17 C          63.2735   88.5996   12.1357 C.ar    1  UNL1        0.1157
     18 N          61.9323   88.5864   11.4639 N.ar    1  UNL1       -0.2228
     19 C          61.0779   89.6341   12.1141 C.ar    1  UNL1        0.1749
     20 N          61.8911   90.2946   13.1877 N.ar    1  UNL1       -0.3361
     21 H          61.5875   91.0204   13.7796 H       1  UNL1        0.1673
     22 C          64.3318   87.4935   14.7643 C.3     1  UNL1        0.0031
     23 C          63.9616   88.9172   15.0573 C.3     1  UNL1        0.0340
     24 C          63.1725   89.2487   16.2892 C.3     1  UNL1        0.0031
@<TRIPOS>BOND
     1    22    23    1
     2    23    24    1
     3    23     1    1
     4     1     2    1
     5     1     4    1
     6     4     5   ar
     7     5     6   ar
     8     6     7   ar
     9     7    10    1
    10    10    11   ar
    11    11    12   ar
    12    12    13   ar
    13    13    14   ar
    14    14    15   ar
    15     7     8   ar
    16     8     9   ar
    17     1    16    1
    18    16    17   ar
    19    17    18   ar
    20    18    19   ar
    21    19    20   ar
    22     9     4   ar
    23    20    16   ar
    24    15    10   ar
    25     2     3    1
    26    20    21    1
@<TRIPOS>MOLECULE
*****
 24 26 0 0 0
SMALL
GASTEIGER

@<TRIPOS>ATOM
      1 C          63.8968   89.2683   13.5825 C.3     1  UNL1        0.1410
      2 O          64.9891   88.9883   14.5715 O.3     1  UNL1       -0.3771
      3 H          65.8183   89.3817   14.2576 H       1  UNL1        0.2112
      4 C          63.6802   87.7947   13.4044 C.ar    1  UNL1        0.0070
      5 C          64.1902   86.8317   14.4352 C.ar    1  UNL1       -0.0017
      6 C          63.9736   85.3582   14.2570 C.ar    1  UNL1       -0.0002
      7 C          63.2470   84.8477   13.0481 C.ar    1  UNL1       -0.0000
      8 C          62.7370   85.8106   12.0174 C.ar    1  UNL1       -0.0002
      9 C          62.9537   87.2842   12.1955 C.ar    1  UNL1       -0.0017
     10 C          63.0304   83.3740   12.8701 C.ar    1  UNL1       -0.0000
     11 C          62.5855   82.5356   14.0315 C.ar    1  UNL1       -0.0000
     12 C          62.3689   81.0620   13.8534 C.ar    1  UNL1        0.0000
     13 C          62.5973   80.4269   12.5138 C.ar    1  UNL1        0.0000
     14 C          63.0422   81.2654   11.3523 C.ar    1  UNL1        0.0000
     15 C          63.2587   82.7389   11.5305 C.ar    1  UNL1       -0.0000
     16 C          62.8045   89.5483   12.5934 C.ar    1  UNL1        0.0825
     17 C          62.9673   89.6519   11.1058 C.ar    1  UNL1        0.1157
     18 N          61.6209   89.9416   10.5112 N.ar    1  UNL1       -0.2228
     19 C          60.6260   90.0170   11.6313 C.ar    1  UNL1        0.1749
     20 N          61.3575   89.7740   12.9181 N.ar    1  UNL1       -0.3361
     21 H          60.9580   89.7643   13.8179 H       1  UNL1        0.1673
     22 C          64.5241   91.5863   12.5908 C.3     1  UNL1        0.0031
     23 C          64.1134   90.7418   13.7605 C.3     1  UNL1        0.0340
     24 C          63.9192   91.3710   15.1083 C.3     1  UNL1        0.0031
@<TRIPOS>BOND
     1    22    23    1
     2    23    24    1
     3    23     1    1
     4     1     2    1
     5     1     4    1
     6     4     5   ar
     7     5     6   ar
     8     6     7   ar
     9     7    10    1
    10    10    11   ar
    11    11    12   ar
    12    12    13   ar
    13    13    14   ar
    14    14    15   ar
    15     7     8   ar
    16     8     9   ar
    17     1    16    1
    18    16    17   ar
    19    17    18   ar
    20    18    19   ar
    21    19    20   ar
    22     9     4   ar
    23    20    16   ar
    24    15    10   ar
    25     2     3    1
    26    20    21    1
@<TRIPOS>MOLECULE
*****
 24 26 0 0 0
SMALL
GASTEIGER

@<TRIPOS>ATOM
      1 C          65.7210   92.6040   12.1819 C.3     1  UNL1        0.1410
      2 O          64.6693   92.3076   11.1544 O.3     1  UNL1       -0.3771
      3 H          64.0975   93.0833   11.0438 H       1  UNL1        0.2112
      4 C          65.2322   91.4554   13.0137 C.ar    1  UNL1        0.0070
      5 C          65.8320   91.1988   14.3644 C.ar    1  UNL1       -0.0017
      6 C          65.3431   90.0502   15.1961 C.ar    1  UNL1       -0.0002
      7 C          64.2545   89.1583   14.6772 C.ar    1  UNL1       -0.0000
      8 C          63.6547   89.4149   13.3265 C.ar    1  UNL1       -0.0002
      9 C          64.1436   90.5635   12.4948 C.ar    1  UNL1       -0.0017
     10 C          63.7657   88.0097   15.5090 C.ar    1  UNL1       -0.0000
     11 C          64.0382   86.6000   15.0750 C.ar    1  UNL1       -0.0000
     12 C          63.5494   85.4513   15.9068 C.ar    1  UNL1        0.0000
     13 C          62.7880   85.7125   17.1725 C.ar    1  UNL1        0.0000
     14 C          62.5155   87.1224   17.6065 C.ar    1  UNL1        0.0000
     15 C          63.0043   88.2709   16.7747 C.ar    1  UNL1       -0.0000
     16 C          66.7728   92.9005   13.2095 C.ar    1  UNL1        0.0825
     17 C          68.1541   92.3173   13.2510 C.ar    1  UNL1        0.1157
     18 N          68.8630   92.8886   14.4432 N.ar    1  UNL1       -0.2228
     19 C          67.9196   93.8249   15.1386 C.ar    1  UNL1        0.1749
     20 N          66.6278   93.8323   14.3761 N.ar    1  UNL1       -0.3361
     21 H          65.8257   94.3566   14.6018 H       1  UNL1        0.1673
     22 C          66.0410   95.1597   11.8415 C.3     1  UNL1        0.0031
     23 C          66.2099   93.7526   11.3502 C.3     1  UNL1        0.0340
     24 C          66.8677   93.4940   10.0271 C.3     1  UNL1        0.0031
@<TRIPOS>BOND
     1    22    23    1
     2    23    24    1
     3    23     1    1
     4     1     2    1
     5     1     4    1
     6     4     5   ar
     7     5     6   ar
     8     6     7   ar
     9     7    10    1
    10    10    11   ar
    11    11    12   ar
    12    12    13   ar
    13    13    14   ar
    14    14    15   ar
    15     7     8   ar
    16     8     9   ar
    17     1    16    1
    18    16    17   ar
    19    17    18   ar
    20    18    19   ar
    21    19    20   ar
    22     9     4   ar
    23    20    16   ar
    24    15    10   ar
    25     2     3    1
    26    20    21    1
