@<TRIPOS>MOLECULE
*****
 32 35 0 0 0
SMALL
GASTEIGER

@<TRIPOS>ATOM
      1 C          65.4424   93.3101   11.2240 C.ar    1  UNL1        0.1219
      2 C          64.4286   92.5028   10.4687 C.ar    1  UNL1        0.0240
      3 C          63.8639   91.2520   11.0743 C.ar    1  UNL1        0.0235
      4 C          64.3129   90.8086   12.4351 C.ar    1  UNL1        0.1166
      5 N          65.3267   91.6159   13.1903 N.ar    1  UNL1       -0.2887
      6 C          65.8915   92.8667   12.5848 C.ar    1  UNL1        0.2772
      7 O          66.9053   93.6741   13.3400 O.2     1  UNL1       -0.2654
      8 C          65.7758   91.1725   14.5511 C.3     1  UNL1        0.1307
      9 C          65.2110   89.9218   15.1566 C.3     1  UNL1        0.1184
     10 N          64.1972   89.1144   14.4014 N.am    1  UNL1       -0.2691
     11 C          63.7481   89.5578   13.0406 C.2     1  UNL1        0.2652
     12 O          62.7344   88.7505   12.2854 O.2     1  UNL1       -0.2683
     13 C          67.6295   96.6918    7.8090 C.3     1  UNL1        0.0538
     14 C          67.0125   96.1152    9.0487 C.ar    1  UNL1        0.0786
     15 C          66.5595   94.6969    9.2304 C.ar    1  UNL1        0.0963
     16 N          66.0072   94.5609   10.6184 N.ar    1  UNL1       -0.2825
     17 C          66.1189   95.8952   11.2945 C.ar    1  UNL1        0.1826
     18 N          66.7401   96.8558   10.3244 N.ar    1  UNL1       -0.2280
     19 C          63.6325   87.8637   15.0069 C.3     1  UNL1        0.1410
     20 C          64.1093   86.5214   14.5371 C.3     1  UNL1        0.2268
     21 O          63.5199   85.9060   13.3025 O.3     1  UNL1       -0.4737
     22 C          63.1590   84.4502   13.2893 C.ar    1  UNL1        0.1425
     23 C          63.0470   83.6934   14.5795 C.ar    1  UNL1        0.0377
     24 C          62.6861   82.2376   14.5662 C.ar    1  UNL1        0.0145
     25 C          62.4373   81.5384   13.2627 C.ar    1  UNL1        0.0578
     26 CL         62.0764   80.0825   13.2494 Cl      1  UNL1       -0.0822
     27 C          62.5493   82.2951   11.9724 C.ar    1  UNL1        0.0183
     28 C          62.9102   83.7510   11.9856 C.ar    1  UNL1        0.1061
     29 C          63.0222   84.5077   10.6954 C.3     1  UNL1        0.4214
     30 F          63.1343   85.2645    9.4051 F       1  UNL1       -0.1657
     31 F          61.7558   85.2441   11.0173 F       1  UNL1       -0.1657
     32 F          64.2887   83.7713   10.3735 F       1  UNL1       -0.1657
@<TRIPOS>BOND
     1    13    14    1
     2    14    15   ar
     3    15    16   ar
     4    16     1    1
     5     1     2   ar
     6     2     3   ar
     7     3     4   ar
     8     4     5   ar
     9     5     6   ar
    10     6     7    2
    11     5     8    1
    12     8     9    1
    13     9    10    1
    14    10    19    1
    15    19    20    1
    16    20    21    1
    17    21    22    1
    18    22    23   ar
    19    23    24   ar
    20    24    25   ar
    21    25    26    1
    22    25    27   ar
    23    27    28   ar
    24    28    29    1
    25    29    30    1
    26    29    31    1
    27    29    32    1
    28    10    11   am
    29    11    12    2
    30    16    17   ar
    31    17    18   ar
    32    18    14   ar
    33     6     1   ar
    34    28    22   ar
    35    11     4    1
@<TRIPOS>MOLECULE
*****
 32 35 0 0 0
SMALL
GASTEIGER

@<TRIPOS>ATOM
      1 C          65.7357   91.7463   13.6812 C.ar    1  UNL1        0.1219
      2 C          64.7847   91.0414   14.6023 C.ar    1  UNL1        0.0240
      3 C          63.4837   90.5124   14.0755 C.ar    1  UNL1        0.0235
      4 C          63.1337   90.6884   12.6275 C.ar    1  UNL1        0.1166
      5 N          64.0848   91.3933   11.7064 N.ar    1  UNL1       -0.2887
      6 C          65.3858   91.9222   12.2332 C.ar    1  UNL1        0.2772
      7 O          66.3370   92.6272   11.3121 O.2     1  UNL1       -0.2654
      8 C          63.7349   91.5693   10.2584 C.3     1  UNL1        0.1307
      9 C          62.4339   91.0403    9.7316 C.3     1  UNL1        0.1184
     10 N          61.4828   90.3354   10.6527 N.am    1  UNL1       -0.2691
     11 C          61.8327   90.1594   12.1007 C.2     1  UNL1        0.2652
     12 O          60.8816   89.4545   13.0218 O.2     1  UNL1       -0.2683
     13 C          69.2797   94.5584   16.4039 C.3     1  UNL1        0.0538
     14 C          68.6658   93.5679   15.4595 C.ar    1  UNL1        0.0786
     15 C          67.1979   93.3605   15.2309 C.ar    1  UNL1        0.0963
     16 N          67.0368   92.2753   14.2080 N.ar    1  UNL1       -0.2825
     17 C          68.4051   91.8119   13.8044 C.ar    1  UNL1        0.1826
     18 N          69.4119   92.6107   14.5779 N.ar    1  UNL1       -0.2280
     19 C          60.1818   89.8064   10.1259 C.3     1  UNL1        0.1410
     20 C          60.0557   88.3582    9.7559 C.3     1  UNL1        0.2268
     21 O          61.2140   87.6408    9.1286 O.3     1  UNL1       -0.4737
     22 C          61.9042   86.5363    9.8728 C.ar    1  UNL1        0.1425
     23 C          62.1218   86.6507   11.3525 C.ar    1  UNL1        0.0377
     24 C          62.8119   85.5462   12.0967 C.ar    1  UNL1        0.0145
     25 C          63.2844   84.3273   11.3612 C.ar    1  UNL1        0.0578
     26 CL         63.9745   83.2228   12.1054 Cl      1  UNL1       -0.0822
     27 C          63.0668   84.2128    9.8815 C.ar    1  UNL1        0.0183
     28 C          62.3766   85.3173    9.1373 C.ar    1  UNL1        0.1061
     29 C          62.1590   85.2029    7.6576 C.3     1  UNL1        0.4214
     30 F          61.9413   85.0885    6.1778 F       1  UNL1       -0.1657
     31 F          60.6749   85.2198    7.8746 F       1  UNL1       -0.1657
     32 F          63.6431   85.1860    7.4406 F       1  UNL1       -0.1657
@<TRIPOS>BOND
     1    13    14    1
     2    14    15   ar
     3    15    16   ar
     4    16     1    1
     5     1     2   ar
     6     2     3   ar
     7     3     4   ar
     8     4     5   ar
     9     5     6   ar
    10     6     7    2
    11     5     8    1
    12     8     9    1
    13     9    10    1
    14    10    19    1
    15    19    20    1
    16    20    21    1
    17    21    22    1
    18    22    23   ar
    19    23    24   ar
    20    24    25   ar
    21    25    26    1
    22    25    27   ar
    23    27    28   ar
    24    28    29    1
    25    29    30    1
    26    29    31    1
    27    29    32    1
    28    10    11   am
    29    11    12    2
    30    16    17   ar
    31    17    18   ar
    32    18    14   ar
    33     6     1   ar
    34    28    22   ar
    35    11     4    1
@<TRIPOS>MOLECULE
*****
 32 35 0 0 0
SMALL
GASTEIGER

@<TRIPOS>ATOM
      1 C          62.0971   86.6882   10.1096 C.ar    1  UNL1        0.1219
      2 C          62.6439   85.7836   11.1738 C.ar    1  UNL1        0.0240
      3 C          63.2036   86.3656   12.4380 C.ar    1  UNL1        0.0235
      4 C          63.2164   87.8521   12.6379 C.ar    1  UNL1        0.1166
      5 N          62.6696   88.7568   11.5736 N.ar    1  UNL1       -0.2887
      6 C          62.1099   88.1748   10.3095 C.ar    1  UNL1        0.2772
      7 O          61.5630   89.0794    9.2452 O.2     1  UNL1       -0.2654
      8 C          62.6825   90.2433   11.7735 C.3     1  UNL1        0.1307
      9 C          63.2421   90.8253   13.0377 C.3     1  UNL1        0.1184
     10 N          63.7890   89.9207   14.1020 N.am    1  UNL1       -0.2691
     11 C          63.7762   88.4341   13.9021 C.2     1  UNL1        0.2652
     12 O          64.3230   87.5295   14.9663 O.2     1  UNL1       -0.2683
     13 C          61.6911   84.1301    5.5083 C.3     1  UNL1        0.0538
     14 C          61.3508   84.9304    6.7304 C.ar    1  UNL1        0.0786
     15 C          62.3000   85.3107    7.8279 C.ar    1  UNL1        0.0963
     16 N          61.5373   86.1063    8.8454 N.ar    1  UNL1       -0.2825
     17 C          60.1168   86.2178    8.3769 C.ar    1  UNL1        0.1826
     18 N          60.0015   85.4911    7.0697 N.ar    1  UNL1       -0.2280
     19 C          64.3487   90.5026   15.3661 C.3     1  UNL1        0.1410
     20 C          64.2919   91.9832   15.5996 C.3     1  UNL1        0.2268
     21 O          65.4746   92.8418   15.2614 O.3     1  UNL1       -0.4737
     22 C          66.2115   92.6292   13.9723 C.ar    1  UNL1        0.1425
     23 C          65.4904   92.7677   12.6644 C.ar    1  UNL1        0.0377
     24 C          66.2273   92.5551   11.3754 C.ar    1  UNL1        0.0145
     25 C          67.6855   92.2040   11.3942 C.ar    1  UNL1        0.0578
     26 CL         68.4225   91.9914   10.1052 Cl      1  UNL1       -0.0822
     27 C          68.4068   92.0654   12.7022 C.ar    1  UNL1        0.0183
     28 C          67.6698   92.2780   13.9912 C.ar    1  UNL1        0.1061
     29 C          68.3910   92.1395   15.2991 C.3     1  UNL1        0.4214
     30 F          69.1123   92.0010   16.6071 F       1  UNL1       -0.1657
     31 F          69.0214   93.4850   15.0940 F       1  UNL1       -0.1657
     32 F          67.7606   90.7940   15.5042 F       1  UNL1       -0.1657
@<TRIPOS>BOND
     1    13    14    1
     2    14    15   ar
     3    15    16   ar
     4    16     1    1
     5     1     2   ar
     6     2     3   ar
     7     3     4   ar
     8     4     5   ar
     9     5     6   ar
    10     6     7    2
    11     5     8    1
    12     8     9    1
    13     9    10    1
    14    10    19    1
    15    19    20    1
    16    20    21    1
    17    21    22    1
    18    22    23   ar
    19    23    24   ar
    20    24    25   ar
    21    25    26    1
    22    25    27   ar
    23    27    28   ar
    24    28    29    1
    25    29    30    1
    26    29    31    1
    27    29    32    1
    28    10    11   am
    29    11    12    2
    30    16    17   ar
    31    17    18   ar
    32    18    14   ar
    33     6     1   ar
    34    28    22   ar
    35    11     4    1
@<TRIPOS>MOLECULE
*****
 32 35 0 0 0
SMALL
GASTEIGER

@<TRIPOS>ATOM
      1 C          62.9443   84.9127   12.3301 C.ar    1  UNL1        0.1219
      2 C          62.3303   85.7117   11.2191 C.ar    1  UNL1        0.0240
      3 C          62.4261   87.2086   11.2302 C.ar    1  UNL1        0.0235
      4 C          63.1359   87.9064   12.3524 C.ar    1  UNL1        0.1166
      5 N          63.7499   87.1073   13.4634 N.ar    1  UNL1       -0.2887
      6 C          63.6541   85.6105   13.4523 C.ar    1  UNL1        0.2772
      7 O          64.2681   84.8113   14.5634 O.2     1  UNL1       -0.2654
      8 C          64.4596   87.8051   14.5856 C.3     1  UNL1        0.1307
      9 C          64.5554   89.3020   14.5968 C.3     1  UNL1        0.1184
     10 N          63.9414   90.1011   13.4857 N.am    1  UNL1       -0.2691
     11 C          63.2316   89.4033   12.3635 C.2     1  UNL1        0.2652
     12 O          62.6176   90.2024   11.2525 O.2     1  UNL1       -0.2683
     13 C          61.9741   79.9317   13.7896 C.3     1  UNL1        0.0538
     14 C          62.4025   81.1262   12.9899 C.ar    1  UNL1        0.0786
     15 C          62.3091   82.5585   13.4255 C.ar    1  UNL1        0.0963
     16 N          62.8485   83.4157   12.3190 N.ar    1  UNL1       -0.2825
     17 C          63.2753   82.5132   11.1995 C.ar    1  UNL1        0.1826
     18 N          62.9996   81.0982   11.6141 N.ar    1  UNL1       -0.2280
     19 C          64.0372   91.5980   13.4968 C.3     1  UNL1        0.1410
     20 C          65.3164   92.2646   13.9083 C.3     1  UNL1        0.2268
     21 O          65.8601   93.4066   13.1018 O.3     1  UNL1       -0.4737
     22 C          66.6808   93.1352   11.8758 C.ar    1  UNL1        0.1425
     23 C          67.5189   91.8939   11.7940 C.ar    1  UNL1        0.0377
     24 C          68.3395   91.6225   10.5681 C.ar    1  UNL1        0.0145
     25 C          68.3221   92.5924    9.4240 C.ar    1  UNL1        0.0578
     26 CL         69.1427   92.3211    8.1981 Cl      1  UNL1       -0.0822
     27 C          67.4839   93.8338    9.5058 C.ar    1  UNL1        0.0183
     28 C          66.6633   94.1052   10.7317 C.ar    1  UNL1        0.1061
     29 C          65.8252   95.3465   10.8136 C.3     1  UNL1        0.4214
     30 F          64.9870   96.5878   10.8955 F       1  UNL1       -0.1657
     31 F          64.6842   94.6188   10.1668 F       1  UNL1       -0.1657
     32 F          66.9662   96.0742   11.4604 F       1  UNL1       -0.1657
@<TRIPOS>BOND
     1    13    14    1
     2    14    15   ar
     3    15    16   ar
     4    16     1    1
     5     1     2   ar
     6     2     3   ar
     7     3     4   ar
     8     4     5   ar
     9     5     6   ar
    10     6     7    2
    11     5     8    1
    12     8     9    1
    13     9    10    1
    14    10    19    1
    15    19    20    1
    16    20    21    1
    17    21    22    1
    18    22    23   ar
    19    23    24   ar
    20    24    25   ar
    21    25    26    1
    22    25    27   ar
    23    27    28   ar
    24    28    29    1
    25    29    30    1
    26    29    31    1
    27    29    32    1
    28    10    11   am
    29    11    12    2
    30    16    17   ar
    31    17    18   ar
    32    18    14   ar
    33     6     1   ar
    34    28    22   ar
    35    11     4    1
@<TRIPOS>MOLECULE
*****
 32 35 0 0 0
SMALL
GASTEIGER

@<TRIPOS>ATOM
      1 C          63.2068   84.5873   13.1891 C.ar    1  UNL1        0.1219
      2 C          64.0273   85.0977   14.3363 C.ar    1  UNL1        0.0240
      3 C          64.3107   86.5654   14.4612 C.ar    1  UNL1        0.0235
      4 C          63.7736   87.5226   13.4388 C.ar    1  UNL1        0.1166
      5 N          62.9531   87.0122   12.2916 N.ar    1  UNL1       -0.2887
      6 C          62.6697   85.5445   12.1667 C.ar    1  UNL1        0.2772
      7 O          61.8491   85.0340   11.0195 O.2     1  UNL1       -0.2654
      8 C          62.4160   87.9694   11.2692 C.3     1  UNL1        0.1307
      9 C          62.6994   89.4371   11.3941 C.3     1  UNL1        0.1184
     10 N          63.5199   89.9476   12.5414 N.am    1  UNL1       -0.2691
     11 C          64.0571   88.9903   13.5637 C.2     1  UNL1        0.2652
     12 O          64.8776   89.5008   14.7110 O.2     1  UNL1       -0.2683
     13 C          62.8348   79.6922   11.2446 C.3     1  UNL1        0.0538
     14 C          62.7524   80.8696   12.1704 C.ar    1  UNL1        0.0786
     15 C          63.1858   82.2707   11.8557 C.ar    1  UNL1        0.0963
     16 N          62.9234   83.1196   13.0642 N.ar    1  UNL1       -0.2825
     17 C          62.3278   82.2431   14.1258 C.ar    1  UNL1        0.1826
     18 N          62.2221   80.8526   13.5735 N.ar    1  UNL1       -0.2280
     19 C          63.8033   91.4152   12.6662 C.3     1  UNL1        0.1410
     20 C          64.5186   92.1375   11.5632 C.3     1  UNL1        0.2268
     21 O          65.5506   93.1752   11.8920 O.3     1  UNL1       -0.4737
     22 C          66.0568   94.0953   10.8209 C.ar    1  UNL1        0.1425
     23 C          65.3888   95.4186   10.5916 C.ar    1  UNL1        0.0377
     24 C          65.8949   96.3387    9.5205 C.ar    1  UNL1        0.0145
     25 C          67.0691   95.9355    8.6787 C.ar    1  UNL1        0.0578
     26 CL         67.5753   96.8556    7.6076 Cl      1  UNL1       -0.0822
     27 C          67.7372   94.6121    8.9080 C.ar    1  UNL1        0.0183
     28 C          67.2310   93.6921    9.9791 C.ar    1  UNL1        0.1061
     29 C          67.8991   92.3688   10.2084 C.3     1  UNL1        0.4214
     30 F          68.5671   91.0454   10.4376 F       1  UNL1       -0.1657
     31 F          68.0693   92.1982    8.7279 F       1  UNL1       -0.1657
     32 F          67.7288   92.5394   11.6888 F       1  UNL1       -0.1657
@<TRIPOS>BOND
     1    13    14    1
     2    14    15   ar
     3    15    16   ar
     4    16     1    1
     5     1     2   ar
     6     2     3   ar
     7     3     4   ar
     8     4     5   ar
     9     5     6   ar
    10     6     7    2
    11     5     8    1
    12     8     9    1
    13     9    10    1
    14    10    19    1
    15    19    20    1
    16    20    21    1
    17    21    22    1
    18    22    23   ar
    19    23    24   ar
    20    24    25   ar
    21    25    26    1
    22    25    27   ar
    23    27    28   ar
    24    28    29    1
    25    29    30    1
    26    29    31    1
    27    29    32    1
    28    10    11   am
    29    11    12    2
    30    16    17   ar
    31    17    18   ar
    32    18    14   ar
    33     6     1   ar
    34    28    22   ar
    35    11     4    1
@<TRIPOS>MOLECULE
*****
 32 35 0 0 0
SMALL
GASTEIGER

@<TRIPOS>ATOM
      1 C          62.8573   84.0184   11.9282 C.ar    1  UNL1        0.1219
      2 C          62.1968   84.8685   10.8837 C.ar    1  UNL1        0.0240
      3 C          62.2050   86.3625   11.0175 C.ar    1  UNL1        0.0235
      4 C          62.8736   87.0063   12.1958 C.ar    1  UNL1        0.1166
      5 N          63.5340   86.1562   13.2403 N.ar    1  UNL1       -0.2887
      6 C          63.5259   84.6622   13.1065 C.ar    1  UNL1        0.2772
      7 O          64.1863   83.8120   14.1511 O.2     1  UNL1       -0.2654
      8 C          64.2026   86.8000   14.4187 C.3     1  UNL1        0.1307
      9 C          64.2108   88.2940   14.5525 C.3     1  UNL1        0.1184
     10 N          63.5504   89.1442   13.5079 N.am    1  UNL1       -0.2691
     11 C          62.8818   88.5004   12.3296 C.2     1  UNL1        0.2652
     12 O          62.2213   89.3505   11.2851 O.2     1  UNL1       -0.2683
     13 C          63.1326   79.1580    9.8831 C.3     1  UNL1        0.0538
     14 C          62.9757   80.2903   10.8543 C.ar    1  UNL1        0.0786
     15 C          63.0694   81.7513   10.5279 C.ar    1  UNL1        0.0963
     16 N          62.8491   82.5243   11.7944 N.ar    1  UNL1       -0.2825
     17 C          62.6193   81.5410   12.9036 C.ar    1  UNL1        0.1826
     18 N          62.6975   80.1603   12.3226 N.ar    1  UNL1       -0.2280
     19 C          63.5585   90.6381   13.6417 C.3     1  UNL1        0.1410
     20 C          64.3600   91.2893   14.7297 C.3     1  UNL1        0.2268
     21 O          65.2456   92.4576   14.4121 O.3     1  UNL1       -0.4737
     22 C          66.1470   92.4115   13.2140 C.ar    1  UNL1        0.1425
     23 C          65.5804   92.6184   11.8407 C.ar    1  UNL1        0.0377
     24 C          66.4819   92.5723   10.6427 C.ar    1  UNL1        0.0145
     25 C          67.9499   92.3193   10.8180 C.ar    1  UNL1        0.0578
     26 CL         68.8513   92.2731    9.6199 Cl      1  UNL1       -0.0822
     27 C          68.5166   92.1123   12.1914 C.ar    1  UNL1        0.0183
     28 C          67.6152   92.1585   13.3894 C.ar    1  UNL1        0.1061
     29 C          68.1818   91.9516   14.7627 C.3     1  UNL1        0.4214
     30 F          68.7484   91.7447   16.1361 F       1  UNL1       -0.1657
     31 F          68.8174   93.3089   14.7050 F       1  UNL1       -0.1657
     32 F          67.5461   90.5942   14.8205 F       1  UNL1       -0.1657
@<TRIPOS>BOND
     1    13    14    1
     2    14    15   ar
     3    15    16   ar
     4    16     1    1
     5     1     2   ar
     6     2     3   ar
     7     3     4   ar
     8     4     5   ar
     9     5     6   ar
    10     6     7    2
    11     5     8    1
    12     8     9    1
    13     9    10    1
    14    10    19    1
    15    19    20    1
    16    20    21    1
    17    21    22    1
    18    22    23   ar
    19    23    24   ar
    20    24    25   ar
    21    25    26    1
    22    25    27   ar
    23    27    28   ar
    24    28    29    1
    25    29    30    1
    26    29    31    1
    27    29    32    1
    28    10    11   am
    29    11    12    2
    30    16    17   ar
    31    17    18   ar
    32    18    14   ar
    33     6     1   ar
    34    28    22   ar
    35    11     4    1
@<TRIPOS>MOLECULE
*****
 32 35 0 0 0
SMALL
GASTEIGER

@<TRIPOS>ATOM
      1 C          65.4194   93.2908   11.2189 C.ar    1  UNL1        0.1219
      2 C          64.3754   92.5186   10.4681 C.ar    1  UNL1        0.0240
      3 C          63.8009   91.2649   11.0581 C.ar    1  UNL1        0.0235
      4 C          64.2704   90.7834   12.3989 C.ar    1  UNL1        0.1166
      5 N          65.3145   91.5555   13.1497 N.ar    1  UNL1       -0.2887
      6 C          65.8889   92.8092   12.5597 C.ar    1  UNL1        0.2772
      7 O          66.9330   93.5815   13.3105 O.2     1  UNL1       -0.2654
      8 C          65.7840   91.0740   14.4904 C.3     1  UNL1        0.1307
      9 C          65.2095   89.8203   15.0804 C.3     1  UNL1        0.1184
     10 N          64.1654   89.0480   14.3296 N.am    1  UNL1       -0.2691
     11 C          63.6959   89.5296   12.9889 C.2     1  UNL1        0.2652
     12 O          62.6519   88.7574   12.2381 O.2     1  UNL1       -0.2683
     13 C          67.7111   96.6763    7.8771 C.3     1  UNL1        0.0538
     14 C          67.0473   96.1007    9.0929 C.ar    1  UNL1        0.0786
     15 C          66.6055   94.6777    9.2658 C.ar    1  UNL1        0.0963
     16 N          65.9939   94.5446   10.6290 N.ar    1  UNL1       -0.2825
     17 C          66.0577   95.8853   11.2986 C.ar    1  UNL1        0.1826
     18 N          66.7088   96.8470   10.3492 N.ar    1  UNL1       -0.2280
     19 C          63.5910   87.7943   14.9196 C.3     1  UNL1        0.1410
     20 C          64.0046   86.4555   14.3843 C.3     1  UNL1        0.2268
     21 O          63.3533   85.9080   13.1488 O.3     1  UNL1       -0.4737
     22 C          63.1526   84.4290   12.9995 C.ar    1  UNL1        0.1425
     23 C          63.3023   83.7840   11.6536 C.ar    1  UNL1        0.0377
     24 C          63.1017   82.3050   11.5042 C.ar    1  UNL1        0.0145
     25 C          62.7512   81.4711   12.7007 C.ar    1  UNL1        0.0578
     26 CL         62.5505   79.9921   12.5513 Cl      1  UNL1       -0.0822
     27 C          62.6015   82.1161   14.0467 C.ar    1  UNL1        0.0183
     28 C          62.8021   83.5951   14.1961 C.ar    1  UNL1        0.1061
     29 C          62.6524   84.2401   15.5420 C.3     1  UNL1        0.4214
     30 F          62.5027   84.8852   16.8879 F       1  UNL1       -0.1657
     31 F          64.0649   83.8645   15.8791 F       1  UNL1       -0.1657
     32 F          61.2399   84.6158   15.2048 F       1  UNL1       -0.1657
@<TRIPOS>BOND
     1    13    14    1
     2    14    15   ar
     3    15    16   ar
     4    16     1    1
     5     1     2   ar
     6     2     3   ar
     7     3     4   ar
     8     4     5   ar
     9     5     6   ar
    10     6     7    2
    11     5     8    1
    12     8     9    1
    13     9    10    1
    14    10    19    1
    15    19    20    1
    16    20    21    1
    17    21    22    1
    18    22    23   ar
    19    23    24   ar
    20    24    25   ar
    21    25    26    1
    22    25    27   ar
    23    27    28   ar
    24    28    29    1
    25    29    30    1
    26    29    31    1
    27    29    32    1
    28    10    11   am
    29    11    12    2
    30    16    17   ar
    31    17    18   ar
    32    18    14   ar
    33     6     1   ar
    34    28    22   ar
    35    11     4    1
@<TRIPOS>MOLECULE
*****
 32 35 0 0 0
SMALL
GASTEIGER

@<TRIPOS>ATOM
      1 C          62.8392   84.2888   12.3227 C.ar    1  UNL1        0.1219
      2 C          62.1318   84.4774   11.0135 C.ar    1  UNL1        0.0240
      3 C          61.9345   85.8573   10.4596 C.ar    1  UNL1        0.0235
      4 C          62.4445   87.0487   11.2149 C.ar    1  UNL1        0.1166
      5 N          63.1519   86.8601   12.5241 N.ar    1  UNL1       -0.2887
      6 C          63.3493   85.4802   13.0780 C.ar    1  UNL1        0.2772
      7 O          64.0567   85.2916   14.3872 O.2     1  UNL1       -0.2654
      8 C          63.6619   88.0515   13.2794 C.3     1  UNL1        0.1307
      9 C          63.4645   89.4314   12.7255 C.3     1  UNL1        0.1184
     10 N          62.7571   89.6200   11.4163 N.am    1  UNL1       -0.2691
     11 C          62.2471   88.4287   10.6610 C.2     1  UNL1        0.2652
     12 O          61.5397   88.6172    9.3518 O.2     1  UNL1       -0.2683
     13 C          62.0121   79.2473   13.6568 C.3     1  UNL1        0.0538
     14 C          62.6564   80.5915   13.4898 C.ar    1  UNL1        0.0786
     15 C          62.0460   81.7841   12.8152 C.ar    1  UNL1        0.0963
     16 N          63.0366   82.9089   12.8766 N.ar    1  UNL1       -0.2825
     17 C          64.2592   82.4114   13.5891 C.ar    1  UNL1        0.1826
     18 N          64.0243   80.9792   13.9681 N.ar    1  UNL1       -0.2280
     19 C          62.5597   91.0000   10.8624 C.3     1  UNL1        0.1410
     20 C          63.6340   91.6348   10.0301 C.3     1  UNL1        0.2268
     21 O          64.4602   92.7514   10.5964 O.3     1  UNL1       -0.4737
     22 C          65.4275   92.4785   11.7099 C.ar    1  UNL1        0.1425
     23 C          64.9183   92.1332   13.0779 C.ar    1  UNL1        0.0377
     24 C          65.8855   91.8602   14.1914 C.ar    1  UNL1        0.0145
     25 C          67.3620   91.9327   13.9369 C.ar    1  UNL1        0.0578
     26 CL         68.3293   91.6598   15.0504 Cl      1  UNL1       -0.0822
     27 C          67.8712   92.2781   12.5689 C.ar    1  UNL1        0.0183
     28 C          66.9040   92.5510   11.4554 C.ar    1  UNL1        0.1061
     29 C          67.4132   92.8963   10.0874 C.3     1  UNL1        0.4214
     30 F          67.9224   93.2417    8.7194 F       1  UNL1       -0.1657
     31 F          67.0404   94.3319   10.3111 F       1  UNL1       -0.1657
     32 F          67.7860   91.4607    9.8637 F       1  UNL1       -0.1657
@<TRIPOS>BOND
     1    13    14    1
     2    14    15   ar
     3    15    16   ar
     4    16     1    1
     5     1     2   ar
     6     2     3   ar
     7     3     4   ar
     8     4     5   ar
     9     5     6   ar
    10     6     7    2
    11     5     8    1
    12     8     9    1
    13     9    10    1
    14    10    19    1
    15    19    20    1
    16    20    21    1
    17    21    22    1
    18    22    23   ar
    19    23    24   ar
    20    24    25   ar
    21    25    26    1
    22    25    27   ar
    23    27    28   ar
    24    28    29    1
    25    29    30    1
    26    29    31    1
    27    29    32    1
    28    10    11   am
    29    11    12    2
    30    16    17   ar
    31    17    18   ar
    32    18    14   ar
    33     6     1   ar
    34    28    22   ar
    35    11     4    1
@<TRIPOS>MOLECULE
*****
 32 35 0 0 0
SMALL
GASTEIGER

@<TRIPOS>ATOM
      1 C          66.1985   92.1361   13.0562 C.ar    1  UNL1        0.1219
      2 C          66.0812   92.4872   11.6027 C.ar    1  UNL1        0.0240
      3 C          64.8635   92.0782   10.8283 C.ar    1  UNL1        0.0235
      4 C          63.7630   91.3180   11.5074 C.ar    1  UNL1        0.1166
      5 N          63.8803   90.9669   12.9610 N.ar    1  UNL1       -0.2887
      6 C          65.0981   91.3759   13.7354 C.ar    1  UNL1        0.2772
      7 O          65.2154   91.0248   15.1890 O.2     1  UNL1       -0.2654
      8 C          62.7799   90.2067   13.6401 C.3     1  UNL1        0.1307
      9 C          61.5622   89.7977   12.8657 C.3     1  UNL1        0.1184
     10 N          61.4449   90.1488   11.4120 N.am    1  UNL1       -0.2691
     11 C          62.5453   90.9089   10.7329 C.2     1  UNL1        0.2652
     12 O          62.4280   91.2601    9.2793 O.2     1  UNL1       -0.2683
     13 C          69.3733   94.5561   16.5125 C.3     1  UNL1        0.0538
     14 C          68.8755   93.6575   15.4194 C.ar    1  UNL1        0.0786
     15 C          67.4612   93.5669   14.9281 C.ar    1  UNL1        0.0963
     16 N          67.4163   92.5451   13.8308 N.ar    1  UNL1       -0.2825
     17 C          68.8028   92.0043   13.6439 C.ar    1  UNL1        0.1826
     18 N          69.7047   92.6917   14.6258 N.ar    1  UNL1       -0.2280
     19 C          60.2271   89.7397   10.6376 C.3     1  UNL1        0.1410
     20 C          59.4755   88.4998   11.0217 C.3     1  UNL1        0.2268
     21 O          60.2112   87.2075   11.2188 O.3     1  UNL1       -0.4737
     22 C          60.8644   86.5307   10.0503 C.ar    1  UNL1        0.1425
     23 C          60.2160   86.5765    8.6985 C.ar    1  UNL1        0.0377
     24 C          60.8691   85.8997    7.5300 C.ar    1  UNL1        0.0145
     25 C          62.1707   85.1770    7.7134 C.ar    1  UNL1        0.0578
     26 CL         62.8238   84.5002    6.5449 Cl      1  UNL1       -0.0822
     27 C          62.8192   85.1312    9.0653 C.ar    1  UNL1        0.0183
     28 C          62.1660   85.8080   10.2337 C.ar    1  UNL1        0.1061
     29 C          62.8144   85.7622   11.5855 C.3     1  UNL1        0.4214
     30 F          63.4629   85.7164   12.9374 F       1  UNL1       -0.1657
     31 F          63.0024   87.2498   11.5458 F       1  UNL1       -0.1657
     32 F          62.6264   84.2746   11.6253 F       1  UNL1       -0.1657
@<TRIPOS>BOND
     1    13    14    1
     2    14    15   ar
     3    15    16   ar
     4    16     1    1
     5     1     2   ar
     6     2     3   ar
     7     3     4   ar
     8     4     5   ar
     9     5     6   ar
    10     6     7    2
    11     5     8    1
    12     8     9    1
    13     9    10    1
    14    10    19    1
    15    19    20    1
    16    20    21    1
    17    21    22    1
    18    22    23   ar
    19    23    24   ar
    20    24    25   ar
    21    25    26    1
    22    25    27   ar
    23    27    28   ar
    24    28    29    1
    25    29    30    1
    26    29    31    1
    27    29    32    1
    28    10    11   am
    29    11    12    2
    30    16    17   ar
    31    17    18   ar
    32    18    14   ar
    33     6     1   ar
    34    28    22   ar
    35    11     4    1
