@<TRIPOS>MOLECULE
*****
 35 38 0 0 0
SMALL
GASTEIGER

@<TRIPOS>ATOM
      1 N          63.0306   90.8735   11.7370 N.am    1  UNL1       -0.2438
      2 C          63.5568   91.4989   10.4793 C.3     1  UNL1        0.1009
      3 C          64.7486   92.4081   10.5355 C.3     1  UNL1        0.0662
      4 C          65.4141   92.6918   11.8495 C.3     1  UNL1        0.1600
      5 O          64.8879   92.0664   13.1073 O.3     1  UNL1       -0.4374
      6 C          63.6962   91.1572   13.0511 C.2     1  UNL1        0.4051
      7 O          63.1700   90.5318   14.3088 O.2     1  UNL1       -0.2262
      8 C          66.2754   93.5151   10.9381 C.ar    1  UNL1        0.0138
      9 C          66.2311   95.0125   11.0146 C.ar    1  UNL1       -0.0010
     10 C          67.0923   95.8358   10.1032 C.ar    1  UNL1       -0.0002
     11 C          67.9978   95.1616    9.1155 C.ar    1  UNL1       -0.0000
     12 C          68.0421   93.6642    9.0391 C.ar    1  UNL1       -0.0002
     13 C          67.1809   92.8409    9.9504 C.ar    1  UNL1       -0.0010
     14 C          60.4559   90.5429   11.6302 C.3     1  UNL1        0.0265
     15 C          61.8389   89.9643   11.6808 C.3     1  UNL1        0.1011
     16 C          62.0302   88.4765   11.6751 C.ar    1  UNL1       -0.0042
     17 C          61.1216   87.6067   10.8580 C.ar    1  UNL1       -0.0027
     18 C          61.3129   86.1190   10.8524 C.ar    1  UNL1       -0.0002
     19 C          62.4128   85.5011   11.6638 C.ar    1  UNL1        0.0014
     20 C          63.3214   86.3710   12.4809 C.ar    1  UNL1       -0.0002
     21 C          63.1301   87.8587   12.4866 C.ar    1  UNL1       -0.0027
     22 C          62.6040   84.0133   11.6582 C.ar    1  UNL1        0.0175
     23 C          63.3066   83.3519   10.5098 C.ar    1  UNL1        0.0064
     24 C          63.4978   81.8641   10.5041 C.ar    1  UNL1        0.0608
     25 C          62.9866   81.0378   11.6469 C.ar    1  UNL1        0.2610
     26 O          63.1778   79.5501   11.6413 O.2     1  UNL1       -0.2670
     27 N          62.2840   81.6994   12.7953 N.ar    1  UNL1       -0.2922
     28 C          61.7728   80.8731   13.9381 C.3     1  UNL1        0.1336
     29 C          62.0928   83.1871   12.8010 C.ar    1  UNL1        0.0783
     30 C          66.3788   93.2615   12.8470 C.3     1  UNL1        0.0714
     31 C          67.0264   92.3651   13.8604 C.3     1  UNL1        0.0922
     32 C          66.2621   93.0500   14.9545 C.3     1  UNL1        0.0294
     33 C          67.7906   91.6803   12.7665 C.3     1  UNL1        0.0294
     34 O          67.6739   91.4688   14.8740 O.3     1  UNL1       -0.3866
     35 H          67.3475   91.6932   15.7595 H       1  UNL1        0.2102
@<TRIPOS>BOND
     1    15    14    1
     2    15    16    1
     3    16    17   ar
     4    17    18   ar
     5    18    19   ar
     6    19    22    1
     7    22    23   ar
     8    23    24   ar
     9    24    25   ar
    10    25    26    2
    11    25    27   ar
    12    27    28    1
    13    27    29   ar
    14    19    20   ar
    15    20    21   ar
    16    15     1    1
    17     1     2    1
    18     2     3    1
    19     3     4    1
    20     4    30    1
    21    30    31    1
    22    31    32    1
    23    31    33    1
    24    31    34    1
    25     4     8    1
    26     8     9   ar
    27     9    10   ar
    28    10    11   ar
    29    11    12   ar
    30    12    13   ar
    31     4     5    1
    32     5     6    1
    33     6     7    2
    34    21    16   ar
    35     6     1   am
    36    29    22   ar
    37    13     8   ar
    38    34    35    1
@<TRIPOS>MOLECULE
*****
 35 38 0 0 0
SMALL
GASTEIGER

@<TRIPOS>ATOM
      1 N          63.4067   90.4914   11.9673 N.am    1  UNL1       -0.2438
      2 C          64.0584   90.3102   13.3061 C.3     1  UNL1        0.1009
      3 C          65.2464   91.1457   13.6812 C.3     1  UNL1        0.0662
      4 C          65.7825   92.1625   12.7175 C.3     1  UNL1        0.1600
      5 O          65.1308   92.3437   11.3787 O.3     1  UNL1       -0.4374
      6 C          63.9428   91.5082   11.0036 C.2     1  UNL1        0.4051
      7 O          63.2911   91.6894    9.6648 O.2     1  UNL1       -0.2262
      8 C          66.7355   92.3579   13.8593 C.ar    1  UNL1        0.0138
      9 C          68.2047   92.1339   13.6567 C.ar    1  UNL1       -0.0010
     10 C          69.1577   92.3294   14.7986 C.ar    1  UNL1       -0.0002
     11 C          68.6413   92.7489   16.1429 C.ar    1  UNL1       -0.0000
     12 C          67.1720   92.9729   16.3455 C.ar    1  UNL1       -0.0002
     13 C          66.2190   92.7774   15.2037 C.ar    1  UNL1       -0.0010
     14 C          60.9306   90.3168   11.2002 C.3     1  UNL1        0.0265
     15 C          62.2187   89.6558   11.5922 C.3     1  UNL1        0.1011
     16 C          62.3190   88.1592   11.6092 C.ar    1  UNL1       -0.0042
     17 C          61.5545   87.3449   10.6081 C.ar    1  UNL1       -0.0027
     18 C          61.6547   85.8484   10.6251 C.ar    1  UNL1       -0.0002
     19 C          62.5196   85.1662   11.6433 C.ar    1  UNL1        0.0014
     20 C          63.2841   85.9805   12.6444 C.ar    1  UNL1       -0.0002
     21 C          63.1838   87.4770   12.6274 C.ar    1  UNL1       -0.0027
     22 C          62.6198   83.6696   11.6603 C.ar    1  UNL1        0.0175
     23 C          63.2129   82.9443   10.4889 C.ar    1  UNL1        0.0064
     24 C          63.3132   81.4477   10.5059 C.ar    1  UNL1        0.0608
     25 C          62.8203   80.6765   11.6943 C.ar    1  UNL1        0.2610
     26 O          62.9206   79.1800   11.7113 O.2     1  UNL1       -0.2670
     27 N          62.2272   81.4019   12.8657 N.ar    1  UNL1       -0.2922
     28 C          61.7344   80.6306   14.0541 C.3     1  UNL1        0.1336
     29 C          62.1270   82.8984   12.8487 C.ar    1  UNL1        0.0783
     30 C          66.6497   93.2471   12.1503 C.3     1  UNL1        0.0714
     31 C          66.5648   93.5899   10.6925 C.3     1  UNL1        0.0922
     32 C          67.3604   92.3631   10.3577 C.3     1  UNL1        0.0294
     33 C          65.7692   94.8166   11.0273 C.3     1  UNL1        0.0294
     34 O          66.4800   93.9326    9.2347 O.3     1  UNL1       -0.3866
     35 H          66.9468   93.2585    8.7164 H       1  UNL1        0.2102
@<TRIPOS>BOND
     1    15    14    1
     2    15    16    1
     3    16    17   ar
     4    17    18   ar
     5    18    19   ar
     6    19    22    1
     7    22    23   ar
     8    23    24   ar
     9    24    25   ar
    10    25    26    2
    11    25    27   ar
    12    27    28    1
    13    27    29   ar
    14    19    20   ar
    15    20    21   ar
    16    15     1    1
    17     1     2    1
    18     2     3    1
    19     3     4    1
    20     4    30    1
    21    30    31    1
    22    31    32    1
    23    31    33    1
    24    31    34    1
    25     4     8    1
    26     8     9   ar
    27     9    10   ar
    28    10    11   ar
    29    11    12   ar
    30    12    13   ar
    31     4     5    1
    32     5     6    1
    33     6     7    2
    34    21    16   ar
    35     6     1   am
    36    29    22   ar
    37    13     8   ar
    38    34    35    1
