@<TRIPOS>MOLECULE
*****
 45 50 0 0 0
SMALL
GASTEIGER

@<TRIPOS>ATOM
      1 N          60.2285   89.4582    7.9898 N.am    1  UNL1       -0.1907
      2 C          59.9488   89.9626    9.3746 C.2     1  UNL1        0.3219
      3 O          59.4124   91.3181    9.7275 O.2     1  UNL1       -0.2512
      4 N          60.2998   88.8734   10.3443 N.am    1  UNL1       -0.2222
      5 C          60.7964   87.6957    9.5590 C.3     1  UNL1        0.1391
      6 C          61.2686   86.6044    8.6447 C.3     1  UNL1        0.0449
      7 C          61.7285   85.2953    9.2144 C.3     1  UNL1        0.0746
      8 N          61.7163   85.0776   10.6985 N.3     1  UNL1       -0.2676
      9 C          61.2441   86.1689   11.6128 C.3     1  UNL1        0.0746
     10 C          60.7842   87.4780   11.0430 C.3     1  UNL1        0.0449
     11 C          60.7523   88.0572    8.1038 C.2     1  UNL1        0.2529
     12 O          61.1604   87.1729    6.9630 O.2     1  UNL1       -0.2724
     13 C          59.6053   91.7461    4.1653 C.ar    1  UNL1        0.0001
     14 C          58.4248   91.3371    4.9955 C.ar    1  UNL1        0.0013
     15 C          58.6325   90.5744    6.2703 C.ar    1  UNL1        0.0154
     16 C          60.0207   90.2208    6.7150 C.ar    1  UNL1        0.0622
     17 C          61.2012   90.6298    5.8849 C.ar    1  UNL1        0.0154
     18 C          60.9935   91.3924    4.6100 C.ar    1  UNL1        0.0013
     19 C          58.9822   94.0340    0.3407 C.ar    1  UNL1        0.0534
     20 C          58.2021   92.7791    0.5997 C.ar    1  UNL1        0.0045
     21 C          58.4098   92.0165    1.8745 C.ar    1  UNL1        0.0001
     22 C          59.3976   92.5087    2.8905 C.ar    1  UNL1        0.0000
     23 C          60.1776   93.7635    2.6316 C.ar    1  UNL1        0.0001
     24 C          59.9699   94.5262    1.3567 C.ar    1  UNL1        0.0045
     25 C          57.4527   96.5584   -2.3122 C.3     1  UNL1        0.1109
     26 N          57.6604   95.7957   -1.0374 N.am    1  UNL1       -0.2992
     27 C          58.7744   94.7966   -0.9341 C.2     1  UNL1        0.2459
     28 O          59.6808   94.5601   -2.1057 O.2     1  UNL1       -0.2701
     29 H          57.0655   95.9509   -0.2684 H       1  UNL1        0.1498
     30 C          60.1760   88.9485   11.8373 C.ar    1  UNL1        0.1453
     31 C          61.3536   89.3656   12.6675 C.ar    1  UNL1        0.0924
     32 C          61.2297   89.4407   14.1605 C.ar    1  UNL1        0.2293
     33 N          59.9282   89.0987   14.8233 N.ar    1  UNL1       -0.1892
     34 C          58.7507   88.6816   13.9931 C.ar    1  UNL1        0.2027
     35 N          58.8746   88.6065   12.5001 N.ar    1  UNL1       -0.2084
     36 O          62.4073   89.8578   14.9907 O.3     1  UNL1       -0.4560
     37 C          63.6653   90.3302   14.3242 C.3     1  UNL1        0.2542
     38 C          62.1762   83.7684   11.2683 C.3     1  UNL1        0.1183
     39 C          62.8940   83.7342   12.5849 C.ar    1  UNL1        0.0712
     40 N          63.7459   84.8951   13.0051 N.ar    1  UNL1       -0.2471
     41 C          64.4637   84.8609   14.3218 C.ar    1  UNL1        0.0985
     42 C          64.3295   83.6658   15.2183 C.ar    1  UNL1        0.0203
     43 C          63.4776   82.5049   14.7981 C.ar    1  UNL1       -0.0015
     44 C          62.7599   82.5391   13.4815 C.ar    1  UNL1       -0.0069
     45 C          61.9080   81.3781   13.0613 C.3     1  UNL1        0.0323
@<TRIPOS>BOND
     1    25    26    1
     2    26    27   am
     3    27    28    2
     4    27    19    1
     5    19    20   ar
     6    20    21   ar
     7    21    22   ar
     8    22    13    1
     9    13    14   ar
    10    14    15   ar
    11    15    16   ar
    12    16     1    1
    13     1     2   am
    14     2     3    2
    15     2     4   am
    16     4    30    1
    17    30    31   ar
    18    31    32   ar
    19    32    36    1
    20    36    37    1
    21    32    33   ar
    22    33    34   ar
    23    34    35   ar
    24     4     5    1
    25     5     6    1
    26     6     7    1
    27     7     8    1
    28     8    38    1
    29    38    39    1
    30    39    40   ar
    31    40    41   ar
    32    41    42   ar
    33    42    43   ar
    34    43    44   ar
    35    44    45    1
    36     8     9    1
    37     9    10    1
    38     5    11    1
    39    11    12    2
    40    16    17   ar
    41    17    18   ar
    42    22    23   ar
    43    23    24   ar
    44    24    19   ar
    45    18    13   ar
    46    11     1   am
    47    35    30   ar
    48    10     5    1
    49    44    39   ar
    50    26    29    1
@<TRIPOS>MOLECULE
*****
 45 50 0 0 0
SMALL
GASTEIGER

@<TRIPOS>ATOM
      1 N          60.1706   89.5389    7.7339 N.am    1  UNL1       -0.1907
      2 C          59.7950   90.0025    9.1102 C.2     1  UNL1        0.3219
      3 O          59.1843   91.3275    9.4581 O.2     1  UNL1       -0.2512
      4 N          60.1372   88.9082   10.0774 N.am    1  UNL1       -0.2222
      5 C          60.7244   87.7683    9.2990 C.3     1  UNL1        0.1391
      6 C          61.2907   86.7163    8.3921 C.3     1  UNL1        0.0449
      7 C          61.7726   85.4152    8.9619 C.3     1  UNL1        0.0746
      8 N          61.6882   85.1660   10.4386 N.3     1  UNL1       -0.2676
      9 C          61.1219   86.2180   11.3456 C.3     1  UNL1        0.0746
     10 C          60.6400   87.5192   10.7757 C.3     1  UNL1        0.0449
     11 C          60.7451   88.1581    7.8506 C.2     1  UNL1        0.2529
     12 O          61.2513   87.3152    6.7179 O.2     1  UNL1       -0.2724
     13 C          59.6635   91.8795    3.9242 C.ar    1  UNL1        0.0001
     14 C          58.4631   91.5181    4.7479 C.ar    1  UNL1        0.0013
     15 C          58.6321   90.7379    6.0178 C.ar    1  UNL1        0.0154
     16 C          60.0016   90.3191    6.4640 C.ar    1  UNL1        0.0622
     17 C          61.2019   90.6805    5.6405 C.ar    1  UNL1        0.0154
     18 C          61.0329   91.4607    4.3705 C.ar    1  UNL1        0.0013
     19 C          59.1563   94.2201    0.1144 C.ar    1  UNL1        0.0534
     20 C          59.9822   94.7801    1.2345 C.ar    1  UNL1        0.0045
     21 C          60.1513   93.9999    2.5044 C.ar    1  UNL1        0.0001
     22 C          59.4944   92.6597    2.6543 C.ar    1  UNL1        0.0000
     23 C          58.6686   92.0997    1.5344 C.ar    1  UNL1        0.0001
     24 C          58.4995   92.8799    0.2644 C.ar    1  UNL1        0.0045
     25 C          57.5173   95.7281   -3.1703 C.3     1  UNL1        0.1109
     26 N          57.6863   94.9479   -1.9004 N.am    1  UNL1       -0.2992
     27 C          58.9873   95.0003   -1.1555 C.2     1  UNL1        0.2459
     28 O          60.1191   95.8329   -1.6805 O.2     1  UNL1       -0.2701
     29 H          56.9435   94.4015   -1.5558 H       1  UNL1        0.1498
     30 C          59.9288   88.9469   11.5623 C.ar    1  UNL1        0.1453
     31 C          58.6113   88.5305   12.1460 C.ar    1  UNL1        0.0924
     32 C          58.4030   88.5693   13.6309 C.ar    1  UNL1        0.2293
     33 N          59.5123   89.0245   14.5323 N.ar    1  UNL1       -0.1892
     34 C          60.8298   89.4409   13.9487 C.ar    1  UNL1        0.2027
     35 N          61.0381   89.4021   12.4637 N.ar    1  UNL1       -0.2084
     36 O          57.0855   88.1529   14.2146 O.3     1  UNL1       -0.4560
     37 C          55.9553   87.7591   13.3102 C.3     1  UNL1        0.2542
     38 C          62.1701   83.8648   11.0085 C.3     1  UNL1        0.1183
     39 C          62.8554   83.8382   12.3425 C.ar    1  UNL1        0.0712
     40 N          63.5099   85.0787   12.8743 N.ar    1  UNL1       -0.2471
     41 C          64.1952   85.0520   14.2084 C.ar    1  UNL1        0.0985
     42 C          64.2260   83.7849   15.0106 C.ar    1  UNL1        0.0203
     43 C          63.5716   82.5445   14.4787 C.ar    1  UNL1       -0.0015
     44 C          62.8863   82.5711   13.1447 C.ar    1  UNL1       -0.0069
     45 C          62.2318   81.3306   12.6129 C.3     1  UNL1        0.0323
@<TRIPOS>BOND
     1    25    26    1
     2    26    27   am
     3    27    28    2
     4    27    19    1
     5    19    20   ar
     6    20    21   ar
     7    21    22   ar
     8    22    13    1
     9    13    14   ar
    10    14    15   ar
    11    15    16   ar
    12    16     1    1
    13     1     2   am
    14     2     3    2
    15     2     4   am
    16     4    30    1
    17    30    31   ar
    18    31    32   ar
    19    32    36    1
    20    36    37    1
    21    32    33   ar
    22    33    34   ar
    23    34    35   ar
    24     4     5    1
    25     5     6    1
    26     6     7    1
    27     7     8    1
    28     8    38    1
    29    38    39    1
    30    39    40   ar
    31    40    41   ar
    32    41    42   ar
    33    42    43   ar
    34    43    44   ar
    35    44    45    1
    36     8     9    1
    37     9    10    1
    38     5    11    1
    39    11    12    2
    40    16    17   ar
    41    17    18   ar
    42    22    23   ar
    43    23    24   ar
    44    24    19   ar
    45    18    13   ar
    46    11     1   am
    47    35    30   ar
    48    10     5    1
    49    44    39   ar
    50    26    29    1
