@<TRIPOS>MOLECULE
*****
 68 71 0 0 0
SMALL
GASTEIGER

@<TRIPOS>ATOM
      1 C          60.6368   85.3759    5.5103 C.3     1  UNL1        0.1361
      2 C          60.1968   86.8005    5.6747 C.3     1  UNL1        0.0634
      3 C          59.9172   88.2698    5.5606 C.3     1  UNL1        0.1208
      4 C          59.0878   89.0540    6.6070 C.3     1  UNL1        0.0299
      5 C          58.6605   90.4849    6.7482 C.3     1  UNL1        0.0078
      6 C          59.0582   91.4923    5.7104 C.3     1  UNL1        0.0592
      7 C          58.6309   92.9232    5.8516 C.3     1  UNL1        0.0055
      8 C          59.8832   91.0688    4.5314 C.3     1  UNL1        0.2454
      9 O          59.4424   91.6625    5.0189 O.3     1  UNL1       -0.3580
     10 O          59.8110   89.7151    5.1735 O.3     1  UNL1       -0.3310
     11 C          60.1303   92.2676    3.6644 C.2     1  UNL1        0.2764
     12 O          59.3744   93.2431    4.5171 O.2     1  UNL1       -0.2814
     13 C          60.5410   93.2555    2.6130 C.2     1  UNL1        0.2892
     14 O          59.8739   94.4446    3.2384 O.2     1  UNL1       -0.2666
     15 N          61.0959   93.9863    1.4264 N.am    1  UNL1       -0.2654
     16 C          60.3461   94.9814    2.2615 C.3     1  UNL1        0.0943
     17 C          60.2695   96.4160    1.8303 C.3     1  UNL1        0.0216
     18 C          60.9427   96.8555    0.5640 C.3     1  UNL1        0.0040
     19 C          61.6925   95.8604   -0.2712 C.3     1  UNL1        0.0314
     20 C          61.7691   94.4258    0.1601 C.3     1  UNL1        0.1749
     21 C          62.5292   94.5534   -1.1268 C.2     1  UNL1        0.3351
     22 O          62.2920   96.0232   -1.3102 O.2     1  UNL1       -0.2483
     23 O          63.3405   94.3633   -2.3740 O.3     1  UNL1       -0.4507
     24 C          64.1652   93.8641   -3.5233 C.3     1  UNL1        0.1761
     25 C          64.9647   93.0795   -4.5208 C.3     1  UNL1        0.1083
     26 C          65.7016   92.0459   -5.3200 C.2     1  UNL1        0.1579
     27 O          66.1504   92.9734   -6.4102 O.2     1  UNL1       -0.2956
     28 C          66.3414   90.8118   -5.8835 C.3     1  UNL1        0.0791
     29 C          66.9286   91.4724   -7.0955 C.3     1  UNL1        0.0125
     30 C          66.8543   89.4348   -6.1849 C.2     1  UNL1       -0.0252
     31 C          67.2163   87.9793   -6.2103 C.2     1  UNL1       -0.0186
     32 C          67.9926   88.0275   -7.4928 C.3     1  UNL1        0.0286
     33 C          67.4103   86.5135   -5.9581 C.3     1  UNL1        0.1627
     34 O          68.2286   86.2447   -7.1862 O.3     1  UNL1       -0.3774
     35 C          67.4274   85.1057   -5.4406 C.3     1  UNL1        0.2025
     36 C          67.2668   83.8219   -4.6816 C.2     1  UNL1        0.1798
     37 O          68.0540   82.9710   -5.6335 O.2     1  UNL1       -0.2934
     38 C          66.9359   82.7221   -3.7167 C.3     1  UNL1        0.0605
     39 C          67.6516   81.6335   -4.4600 C.3     1  UNL1        0.0079
     40 C          66.4503   81.8577   -2.5911 C.3     1  UNL1        0.0117
     41 C          65.8326   81.2691   -1.3574 C.3     1  UNL1        0.0225
     42 C          66.3098   79.8662   -1.5906 C.3     1  UNL1        0.0047
     43 C          65.1118   80.9839   -0.0733 C.2     1  UNL1       -0.0265
     44 C          64.3214   81.0154    1.2013 C.2     1  UNL1       -0.0046
     45 C          63.4986   81.3620    2.4066 C.2     1  UNL1       -0.0004
     46 C          62.6817   82.0076    3.4863 C.2     1  UNL1       -0.0006
     47 C          61.9090   82.9222    4.3900 C.2     1  UNL1       -0.0062
     48 C          61.2166   84.0626    5.0754 C.2     1  UNL1       -0.0172
     49 C          60.6955   83.2638    6.2332 C.3     1  UNL1        0.0288
     50 H          59.0671   91.2254    5.7993 H       1  UNL1        0.2132
     51 H          68.3402   87.0679   -7.6869 H       1  UNL1        0.2109
     52 C          60.2291   85.5561    8.0699 C.3     1  UNL1        0.1744
     53 O          59.9904   84.8612    6.7622 O.3     1  UNL1       -0.3494
     54 C          64.2818   95.1849   -4.2249 C.3     1  UNL1        0.0406
     55 C          65.1728   96.2545   -3.6666 C.3     1  UNL1        0.0037
     56 C          63.5073   95.4359   -5.4847 C.3     1  UNL1        0.0037
     57 C          62.0340   95.7088   -5.4176 C.3     1  UNL1        0.0027
     58 C          61.4785   96.5611   -4.3152 C.3     1  UNL1        0.0027
     59 C          60.0051   96.8340   -4.2481 C.3     1  UNL1        0.0318
     60 C          59.0871   96.2548   -5.2834 C.3     1  UNL1        0.1375
     61 O          57.6137   96.5278   -5.2163 O.3     1  UNL1       -0.3820
     62 C          59.6425   95.4026   -6.3858 C.3     1  UNL1        0.1420
     63 C          61.1159   95.1296   -6.4529 C.3     1  UNL1        0.0321
     64 H          57.4238   97.0905   -4.4493 H       1  UNL1        0.2104
     65 O          58.7246   94.8233   -7.4211 O.3     1  UNL1       -0.3511
     66 C          58.3391   93.3752   -7.3557 C.3     1  UNL1        0.1741
     67 O          68.2494   84.5325   -6.5566 O.3     1  UNL1       -0.3433
     68 C          69.7461   84.5211   -6.4565 C.3     1  UNL1        0.1747
@<TRIPOS>BOND
     1    52    53    1
     2     1    53    1
     3     1     2    1
     4     3     2    1
     5     3     4    1
     6     4     5    1
     7     5     6    1
     8     6     7    1
     9     6     8    1
    10     8     9    1
    11     8    10    1
    12     8    11    1
    13    11    12    2
    14    11    13    1
    15    13    14    2
    16    13    15   am
    17    15    16    1
    18    16    17    1
    19    17    18    1
    20    18    19    1
    21    20    19    1
    22    20    21    1
    23    21    22    2
    24    21    23    1
    25    23    24    1
    26    24    54    1
    27    54    55    1
    28    54    56    1
    29    57    56    1
    30    57    58    1
    31    58    59    1
    32    59    60    1
    33    60    61    1
    34    60    62    1
    35    62    65    1
    36    65    66    1
    37    62    63    1
    38    24    25    1
    39    25    26    1
    40    26    27    2
    41    26    28    1
    42    28    29    1
    43    28    30    1
    44    30    31    2
    45    31    32    1
    46    31    33    1
    47    33    34    1
    48    33    35    1
    49    35    67    1
    50    67    68    1
    51    35    36    1
    52    36    37    2
    53    36    38    1
    54    38    39    1
    55    38    40    1
    56    40    41    1
    57    41    42    1
    58    41    43    1
    59    43    44    2
    60    44    45    1
    61    45    46    2
    62    46    47    1
    63    47    48    2
    64    48    49    1
    65    48     1    1
    66    10     3    1
    67    20    15    1
    68    63    57    1
    69     9    50    1
    70    61    64    1
    71    34    51    1
