@<TRIPOS>MOLECULE
*****
 35 37 0 0 0
SMALL
GASTEIGER

@<TRIPOS>ATOM
      1 C          63.9422   90.2094   15.8806 C.ar    1  UNL1        0.1454
      2 C          63.1482   89.6723   17.0345 C.ar    1  UNL1        0.0388
      3 C          62.9135   88.1962   17.1608 C.ar    1  UNL1        0.0178
      4 C          63.4727   87.2572   16.1333 C.ar    1  UNL1        0.0518
      5 C          64.2666   87.7943   14.9796 C.ar    1  UNL1        0.0178
      6 C          64.5013   89.2704   14.8532 C.ar    1  UNL1        0.0388
      7 N          63.2380   85.7811   16.2597 N.am    1  UNL1       -0.2681
      8 C          63.2071   84.9188   15.0326 C.2     1  UNL1        0.3082
      9 O          63.4109   85.5327   13.6792 O.2     1  UNL1       -0.2522
     10 N          62.9724   83.4427   15.1589 N.am    1  UNL1       -0.2681
     11 H          63.1042   85.3781   17.1479 H       1  UNL1        0.1564
     12 H          62.8386   83.0398   16.0472 H       1  UNL1        0.1564
     13 C          62.9415   82.5804   13.9319 C.ar    1  UNL1        0.0516
     14 C          62.5712   81.1311   14.0429 C.ar    1  UNL1        0.0156
     15 C          62.5403   80.2688   12.8159 C.ar    1  UNL1        0.0126
     16 C          62.8797   80.8559   11.4779 C.ar    1  UNL1        0.0616
     17 CL         62.8488   79.9936   10.2509 Cl      1  UNL1       -0.0823
     18 C          63.2500   82.3053   11.3670 C.ar    1  UNL1        0.0832
     19 C          63.2809   83.1675   12.5940 C.ar    1  UNL1        0.0194
     20 C          63.5894   82.8923   10.0290 C.3     1  UNL1        0.4194
     21 F          63.9288   83.4794    8.6910 F       1  UNL1       -0.1658
     22 F          62.4866   83.8963   10.1898 F       1  UNL1       -0.1658
     23 F          64.6922   81.8884    9.8683 F       1  UNL1       -0.1658
     24 O          64.1769   91.6855   15.7543 O.3     1  UNL1       -0.4534
     25 C          66.7987   92.7016   12.9536 C.ar    1  UNL1        0.1375
     26 C          65.5470   92.1944   13.6063 C.ar    1  UNL1        0.0612
     27 C          65.4286   92.1928   15.1016 C.ar    1  UNL1        0.1485
     28 C          66.5619   92.6983   15.9442 C.ar    1  UNL1        0.0582
     29 C          67.8136   93.2055   15.2915 C.ar    1  UNL1        0.1021
     30 N          67.9320   93.2071   13.7962 N.ar    1  UNL1       -0.2391
     31 C          68.3573   92.4167    9.3149 C.3     1  UNL1        0.1110
     32 N          68.2389   92.4151   10.8103 N.am    1  UNL1       -0.2979
     33 C          66.9171   92.7032   11.4583 C.2     1  UNL1        0.2637
     34 O          65.7138   92.9929   10.6109 O.2     1  UNL1       -0.2685
     35 H          69.0287   92.2249   11.3664 H       1  UNL1        0.1498
@<TRIPOS>BOND
     1    31    32    1
     2    32    33   am
     3    33    34    2
     4    33    25    1
     5    25    26   ar
     6    26    27   ar
     7    27    24    1
     8    24     1    1
     9     1     2   ar
    10     2     3   ar
    11     3     4   ar
    12     4     7    1
    13     7     8   am
    14     8     9    2
    15     8    10   am
    16    10    13    1
    17    13    14   ar
    18    14    15   ar
    19    15    16   ar
    20    16    17    1
    21    16    18   ar
    22    18    20    1
    23    20    21    1
    24    20    22    1
    25    20    23    1
    26    18    19   ar
    27     4     5   ar
    28     5     6   ar
    29    27    28   ar
    30    28    29   ar
    31    29    30   ar
    32    30    25   ar
    33     6     1   ar
    34    19    13   ar
    35    32    35    1
    36     7    11    1
    37    10    12    1
@<TRIPOS>MOLECULE
*****
 35 37 0 0 0
SMALL
GASTEIGER

@<TRIPOS>ATOM
      1 C          59.9218   88.7839    8.2204 C.ar    1  UNL1        0.1454
      2 C          59.7780   90.1029    8.9202 C.ar    1  UNL1        0.0388
      3 C          60.1673   90.2328   10.3630 C.ar    1  UNL1        0.0178
      4 C          60.7003   89.0437   11.1060 C.ar    1  UNL1        0.0518
      5 C          60.8441   87.7248   10.4062 C.ar    1  UNL1        0.0178
      6 C          60.4548   87.5948    8.9634 C.ar    1  UNL1        0.0388
      7 N          61.0895   89.1736   12.5488 N.am    1  UNL1       -0.2681
      8 C          62.3107   89.9577   12.9285 C.2     1  UNL1        0.3082
      9 O          63.1425   90.6118   11.8654 O.2     1  UNL1       -0.2522
     10 N          62.6999   90.0876   14.3713 N.am    1  UNL1       -0.2681
     11 H          60.5435   88.7443   13.2465 H       1  UNL1        0.1564
     12 H          62.1539   89.6582   15.0690 H       1  UNL1        0.1564
     13 C          63.9210   90.8716   14.7510 C.ar    1  UNL1        0.0516
     14 C          63.9990   91.5343   16.0944 C.ar    1  UNL1        0.0156
     15 C          65.2201   92.3184   16.4742 C.ar    1  UNL1        0.0126
     16 C          66.3632   92.4397   15.5105 C.ar    1  UNL1        0.0616
     17 CL         67.5843   93.2237   15.8902 Cl      1  UNL1       -0.0823
     18 C          66.2851   91.7769   14.1671 C.ar    1  UNL1        0.0832
     19 C          65.0641   90.9929   13.7873 C.ar    1  UNL1        0.0194
     20 C          67.4282   91.8983   13.2034 C.3     1  UNL1        0.4194
     21 F          68.5713   92.0196   12.2398 F       1  UNL1       -0.1658
     22 F          66.5465   92.6519   12.2523 F       1  UNL1       -0.1658
     23 F          68.3100   91.1446   14.1545 F       1  UNL1       -0.1658
     24 O          59.5326   88.6539    6.7776 O.3     1  UNL1       -0.4534
     25 C          60.3638   91.6272    4.2839 C.ar    1  UNL1        0.1375
     26 C          60.5269   90.3996    5.1301 C.ar    1  UNL1        0.0612
     27 C          59.3694   89.8817    5.9314 C.ar    1  UNL1        0.1485
     28 C          58.0488   90.5915    5.8864 C.ar    1  UNL1        0.0582
     29 C          57.8856   91.8192    5.0401 C.ar    1  UNL1        0.1021
     30 N          59.0432   92.3370    4.2389 N.ar    1  UNL1       -0.2391
     31 C          62.4526   93.6977    1.6193 C.3     1  UNL1        0.1110
     32 N          61.2951   93.1799    2.4206 N.am    1  UNL1       -0.2979
     33 C          61.5213   92.1451    3.4827 C.2     1  UNL1        0.2637
     34 O          62.9050   91.6282    3.7435 O.2     1  UNL1       -0.2685
     35 H          60.3869   93.5191    2.2494 H       1  UNL1        0.1498
@<TRIPOS>BOND
     1    31    32    1
     2    32    33   am
     3    33    34    2
     4    33    25    1
     5    25    26   ar
     6    26    27   ar
     7    27    24    1
     8    24     1    1
     9     1     2   ar
    10     2     3   ar
    11     3     4   ar
    12     4     7    1
    13     7     8   am
    14     8     9    2
    15     8    10   am
    16    10    13    1
    17    13    14   ar
    18    14    15   ar
    19    15    16   ar
    20    16    17    1
    21    16    18   ar
    22    18    20    1
    23    20    21    1
    24    20    22    1
    25    20    23    1
    26    18    19   ar
    27     4     5   ar
    28     5     6   ar
    29    27    28   ar
    30    28    29   ar
    31    29    30   ar
    32    30    25   ar
    33     6     1   ar
    34    19    13   ar
    35    32    35    1
    36     7    11    1
    37    10    12    1
@<TRIPOS>MOLECULE
*****
 35 37 0 0 0
SMALL
GASTEIGER

@<TRIPOS>ATOM
      1 C          59.4541   92.3858    4.1870 C.ar    1  UNL1        0.1454
      2 C          58.0556   92.0580    4.6194 C.ar    1  UNL1        0.0388
      3 C          57.7999   90.8614    5.4870 C.ar    1  UNL1        0.0178
      4 C          58.9426   89.9926    5.9222 C.ar    1  UNL1        0.0518
      5 C          60.3410   90.3204    5.4898 C.ar    1  UNL1        0.0178
      6 C          60.5967   91.5170    4.6222 C.ar    1  UNL1        0.0388
      7 N          58.6869   88.7959    6.7898 N.am    1  UNL1       -0.2681
      8 C          59.6883   88.3986    7.8337 C.2     1  UNL1        0.3082
      9 O          60.9453   89.1979    8.0098 O.2     1  UNL1       -0.2522
     10 N          59.4326   87.2020    8.7013 N.am    1  UNL1       -0.2681
     11 H          57.8619   88.2713    6.6742 H       1  UNL1        0.1564
     12 H          58.6076   86.6774    8.5856 H       1  UNL1        0.1564
     13 C          60.4339   86.8047    9.7450 C.ar    1  UNL1        0.0516
     14 C          60.5790   87.6217   10.9946 C.ar    1  UNL1        0.0156
     15 C          61.5803   87.2244   12.0384 C.ar    1  UNL1        0.0126
     16 C          62.4365   86.0101   11.8327 C.ar    1  UNL1        0.0616
     17 CL         63.4377   85.6127   12.8765 Cl      1  UNL1       -0.0823
     18 C          62.2913   85.1930   10.5831 C.ar    1  UNL1        0.0832
     19 C          61.2900   85.5904    9.5393 C.ar    1  UNL1        0.0194
     20 C          63.1475   83.9787   10.3773 C.3     1  UNL1        0.4194
     21 F          64.0037   82.7644   10.1716 F       1  UNL1       -0.1658
     22 F          63.8819   84.6832    9.2754 F       1  UNL1       -0.1658
     23 F          62.4130   83.2742   11.4792 F       1  UNL1       -0.1658
     24 O          59.7098   93.5824    3.3194 O.3     1  UNL1       -0.4534
     25 C          59.4946   92.9206   -0.5878 C.ar    1  UNL1        0.1375
     26 C          59.0845   93.1056    0.8431 C.ar    1  UNL1        0.0612
     27 C          60.1200   93.3973    1.8884 C.ar    1  UNL1        0.1485
     28 C          61.5656   93.5041    1.5028 C.ar    1  UNL1        0.0582
     29 C          61.9757   93.3191    0.0719 C.ar    1  UNL1        0.1021
     30 N          60.9402   93.0273   -0.9734 N.ar    1  UNL1       -0.2391
     31 C          56.1511   91.6392   -2.2992 C.3     1  UNL1        0.1110
     32 N          57.1866   91.9310   -1.2539 N.am    1  UNL1       -0.2979
     33 C          58.4591   92.6288   -1.6330 C.2     1  UNL1        0.2637
     34 O          58.6961   93.0348   -3.0574 O.2     1  UNL1       -0.2685
     35 H          57.0310   91.6644   -0.3190 H       1  UNL1        0.1498
@<TRIPOS>BOND
     1    31    32    1
     2    32    33   am
     3    33    34    2
     4    33    25    1
     5    25    26   ar
     6    26    27   ar
     7    27    24    1
     8    24     1    1
     9     1     2   ar
    10     2     3   ar
    11     3     4   ar
    12     4     7    1
    13     7     8   am
    14     8     9    2
    15     8    10   am
    16    10    13    1
    17    13    14   ar
    18    14    15   ar
    19    15    16   ar
    20    16    17    1
    21    16    18   ar
    22    18    20    1
    23    20    21    1
    24    20    22    1
    25    20    23    1
    26    18    19   ar
    27     4     5   ar
    28     5     6   ar
    29    27    28   ar
    30    28    29   ar
    31    29    30   ar
    32    30    25   ar
    33     6     1   ar
    34    19    13   ar
    35    32    35    1
    36     7    11    1
    37    10    12    1
@<TRIPOS>MOLECULE
*****
 35 37 0 0 0
SMALL
GASTEIGER

@<TRIPOS>ATOM
      1 C          63.3301   87.1764   15.7984 C.ar    1  UNL1        0.1454
      2 C          64.3186   87.4463   14.7029 C.ar    1  UNL1        0.0388
      3 C          64.8620   88.8306   14.5073 C.ar    1  UNL1        0.0178
      4 C          64.4169   89.9451   15.4073 C.ar    1  UNL1        0.0518
      5 C          63.4285   89.6753   16.5027 C.ar    1  UNL1        0.0178
      6 C          62.8850   88.2909   16.6983 C.ar    1  UNL1        0.0388
      7 N          64.9603   91.3295   15.2117 N.am    1  UNL1       -0.2681
      8 C          65.3467   91.7966   13.8396 C.2     1  UNL1        0.3082
      9 O          65.1897   90.8794   12.6632 O.2     1  UNL1       -0.2522
     10 N          65.8901   93.1810   13.6440 N.am    1  UNL1       -0.2681
     11 H          65.0634   91.9315   15.9839 H       1  UNL1        0.1564
     12 H          65.9932   93.7830   14.4162 H       1  UNL1        0.1564
     13 C          66.2765   93.6482   12.2720 C.ar    1  UNL1        0.0516
     14 C          65.7450   94.9480   11.7451 C.ar    1  UNL1        0.0156
     15 C          66.1314   95.4152   10.3730 C.ar    1  UNL1        0.0126
     16 C          67.0493   94.5825    9.5280 C.ar    1  UNL1        0.0616
     17 CL         67.4357   95.0497    8.1560 Cl      1  UNL1       -0.0823
     18 C          67.5808   93.2826   10.0551 C.ar    1  UNL1        0.0832
     19 C          67.1944   92.8154   11.4270 C.ar    1  UNL1        0.0194
     20 C          68.4987   92.4499    9.2101 C.3     1  UNL1        0.4194
     21 F          69.4166   91.6172    8.3651 F       1  UNL1       -0.1658
     22 F          69.5688   93.4923    9.3453 F       1  UNL1       -0.1658
     23 F          67.4286   91.4075    9.0748 F       1  UNL1       -0.1658
     24 O          62.7867   85.7921   15.9940 O.3     1  UNL1       -0.4534
     25 C          63.0459   84.1059   12.4107 C.ar    1  UNL1        0.1375
     26 C          62.8615   85.1419   13.4797 C.ar    1  UNL1        0.0612
     27 C          62.9711   84.7560   14.9250 C.ar    1  UNL1        0.1485
     28 C          63.2652   83.3341   15.3014 C.ar    1  UNL1        0.0582
     29 C          63.4496   82.2981   14.2325 C.ar    1  UNL1        0.1021
     30 N          63.3399   82.6841   12.7871 N.ar    1  UNL1       -0.2391
     31 C          61.9438   86.0204    9.1137 C.3     1  UNL1        0.1110
     32 N          62.0535   85.6344   10.5590 N.am    1  UNL1       -0.2979
     33 C          62.9362   84.4919   10.9654 C.2     1  UNL1        0.2637
     34 O          63.7094   83.7352    9.9263 O.2     1  UNL1       -0.2685
     35 H          61.5460   86.1311   11.2410 H       1  UNL1        0.1498
@<TRIPOS>BOND
     1    31    32    1
     2    32    33   am
     3    33    34    2
     4    33    25    1
     5    25    26   ar
     6    26    27   ar
     7    27    24    1
     8    24     1    1
     9     1     2   ar
    10     2     3   ar
    11     3     4   ar
    12     4     7    1
    13     7     8   am
    14     8     9    2
    15     8    10   am
    16    10    13    1
    17    13    14   ar
    18    14    15   ar
    19    15    16   ar
    20    16    17    1
    21    16    18   ar
    22    18    20    1
    23    20    21    1
    24    20    22    1
    25    20    23    1
    26    18    19   ar
    27     4     5   ar
    28     5     6   ar
    29    27    28   ar
    30    28    29   ar
    31    29    30   ar
    32    30    25   ar
    33     6     1   ar
    34    19    13   ar
    35    32    35    1
    36     7    11    1
    37    10    12    1
@<TRIPOS>MOLECULE
*****
 35 37 0 0 0
SMALL
GASTEIGER

@<TRIPOS>ATOM
      1 C          58.9122   89.8885    6.0540 C.ar    1  UNL1        0.1454
      2 C          60.3154   90.2454    5.6620 C.ar    1  UNL1        0.0388
      3 C          60.5708   91.4453    4.7988 C.ar    1  UNL1        0.0178
      4 C          59.4230   92.2882    4.3276 C.ar    1  UNL1        0.0518
      5 C          58.0198   91.9313    4.7197 C.ar    1  UNL1        0.0178
      6 C          57.7644   90.7315    5.5829 C.ar    1  UNL1        0.0388
      7 N          59.6784   93.4881    3.4644 N.am    1  UNL1       -0.2681
      8 C          60.5743   93.3734    2.2668 C.2     1  UNL1        0.3082
      9 O          61.2149   92.0589    1.9325 O.2     1  UNL1       -0.2522
     10 N          60.8297   94.5733    1.4036 N.am    1  UNL1       -0.2681
     11 H          59.2580   94.3508    3.6839 H       1  UNL1        0.1564
     12 H          60.4093   95.4360    1.6231 H       1  UNL1        0.1564
     13 C          61.7256   94.4586    0.2061 C.ar    1  UNL1        0.0516
     14 C          61.3472   93.5552   -0.9299 C.ar    1  UNL1        0.0156
     15 C          62.2431   93.4405   -2.1275 C.ar    1  UNL1        0.0126
     16 C          63.5175   94.2293   -2.1891 C.ar    1  UNL1        0.0616
     17 CL         64.4134   94.1147   -3.3866 Cl      1  UNL1       -0.0823
     18 C          63.8959   95.1328   -1.0530 C.ar    1  UNL1        0.0832
     19 C          63.0000   95.2474    0.1445 C.ar    1  UNL1        0.0194
     20 C          65.1703   95.9216   -1.1145 C.3     1  UNL1        0.4194
     21 F          66.4447   96.7104   -1.1761 F       1  UNL1       -0.1658
     22 F          64.5486   96.8477   -2.1174 F       1  UNL1       -0.1658
     23 F          65.7920   94.9955   -0.1116 F       1  UNL1       -0.1658
     24 O          58.6568   88.6887    6.9172 O.3     1  UNL1       -0.4534
     25 C          61.4562   88.6057    9.7290 C.ar    1  UNL1        0.1375
     26 C          60.3823   89.1127    8.8127 C.ar    1  UNL1        0.0612
     27 C          59.7308   88.1817    7.8336 C.ar    1  UNL1        0.1485
     28 C          60.1532   86.7438    7.7707 C.ar    1  UNL1        0.0582
     29 C          61.2271   86.2369    8.6870 C.ar    1  UNL1        0.1021
     30 N          61.8786   87.1679    9.6662 N.ar    1  UNL1       -0.2391
     31 C          63.1170   89.9815   13.0606 C.3     1  UNL1        0.1110
     32 N          62.4654   89.0506   12.0814 N.am    1  UNL1       -0.2979
     33 C          62.1078   89.5367   10.7082 C.2     1  UNL1        0.2637
     34 O          62.4017   90.9539   10.3142 O.2     1  UNL1       -0.2685
     35 H          62.2726   88.1204   12.3400 H       1  UNL1        0.1498
@<TRIPOS>BOND
     1    31    32    1
     2    32    33   am
     3    33    34    2
     4    33    25    1
     5    25    26   ar
     6    26    27   ar
     7    27    24    1
     8    24     1    1
     9     1     2   ar
    10     2     3   ar
    11     3     4   ar
    12     4     7    1
    13     7     8   am
    14     8     9    2
    15     8    10   am
    16    10    13    1
    17    13    14   ar
    18    14    15   ar
    19    15    16   ar
    20    16    17    1
    21    16    18   ar
    22    18    20    1
    23    20    21    1
    24    20    22    1
    25    20    23    1
    26    18    19   ar
    27     4     5   ar
    28     5     6   ar
    29    27    28   ar
    30    28    29   ar
    31    29    30   ar
    32    30    25   ar
    33     6     1   ar
    34    19    13   ar
    35    32    35    1
    36     7    11    1
    37    10    12    1
@<TRIPOS>MOLECULE
*****
 35 37 0 0 0
SMALL
GASTEIGER

@<TRIPOS>ATOM
      1 C          64.4790   90.5758   15.0525 C.ar    1  UNL1        0.1454
      2 C          63.6065   90.3802   16.2570 C.ar    1  UNL1        0.0388
      3 C          63.1271   89.0062   16.6206 C.ar    1  UNL1        0.0178
      4 C          63.5202   87.8278   15.7799 C.ar    1  UNL1        0.0518
      5 C          64.3926   88.0234   14.5755 C.ar    1  UNL1        0.0178
      6 C          64.8720   89.3974   14.2118 C.ar    1  UNL1        0.0388
      7 N          63.0408   86.4537   16.1435 N.am    1  UNL1       -0.2681
      8 C          63.0678   85.3553   15.1224 C.2     1  UNL1        0.3082
      9 O          63.5742   85.6308   13.7376 O.2     1  UNL1       -0.2522
     10 N          62.5885   83.9812   15.4860 N.am    1  UNL1       -0.2681
     11 H          62.7085   86.2729   17.0524 H       1  UNL1        0.1564
     12 H          62.2561   83.8004   16.3949 H       1  UNL1        0.1564
     13 C          62.6155   82.8828   14.4649 C.ar    1  UNL1        0.0516
     14 C          61.9538   81.5692   14.7589 C.ar    1  UNL1        0.0156
     15 C          61.9808   80.4706   13.7378 C.ar    1  UNL1        0.0126
     16 C          62.6694   80.6858   12.4227 C.ar    1  UNL1        0.0616
     17 CL         62.6964   79.5874   11.4017 Cl      1  UNL1       -0.0823
     18 C          63.3311   81.9996   12.1288 C.ar    1  UNL1        0.0832
     19 C          63.3041   83.0980   13.1499 C.ar    1  UNL1        0.0194
     20 C          64.0198   82.2148   10.8137 C.3     1  UNL1        0.4194
     21 F          64.7085   82.4300    9.4986 F       1  UNL1       -0.1658
     22 F          62.9002   81.5055   10.1113 F       1  UNL1       -0.1658
     23 F          65.1394   82.9240   11.5161 F       1  UNL1       -0.1658
     24 O          64.9583   91.9498   14.6888 O.3     1  UNL1       -0.4534
     25 C          65.7498   94.0744   11.4316 C.ar    1  UNL1        0.1375
     26 C          65.6774   93.6621   12.8719 C.ar    1  UNL1        0.0612
     27 C          65.0307   92.3621   13.2484 C.ar    1  UNL1        0.1485
     28 C          64.4564   91.4743   12.1844 C.ar    1  UNL1        0.0582
     29 C          64.5288   91.8866   10.7441 C.ar    1  UNL1        0.1021
     30 N          65.1755   93.1866   10.3676 N.ar    1  UNL1       -0.2391
     31 C          67.6190   96.8557    9.3055 C.3     1  UNL1        0.1110
     32 N          66.9723   95.5557    9.6820 N.am    1  UNL1       -0.2979
     33 C          66.3965   95.3744   11.0551 C.2     1  UNL1        0.2637
     34 O          66.4674   96.4931   12.0518 O.2     1  UNL1       -0.2685
     35 H          66.9258   94.8215    9.0278 H       1  UNL1        0.1498
@<TRIPOS>BOND
     1    31    32    1
     2    32    33   am
     3    33    34    2
     4    33    25    1
     5    25    26   ar
     6    26    27   ar
     7    27    24    1
     8    24     1    1
     9     1     2   ar
    10     2     3   ar
    11     3     4   ar
    12     4     7    1
    13     7     8   am
    14     8     9    2
    15     8    10   am
    16    10    13    1
    17    13    14   ar
    18    14    15   ar
    19    15    16   ar
    20    16    17    1
    21    16    18   ar
    22    18    20    1
    23    20    21    1
    24    20    22    1
    25    20    23    1
    26    18    19   ar
    27     4     5   ar
    28     5     6   ar
    29    27    28   ar
    30    28    29   ar
    31    29    30   ar
    32    30    25   ar
    33     6     1   ar
    34    19    13   ar
    35    32    35    1
    36     7    11    1
    37    10    12    1
@<TRIPOS>MOLECULE
*****
 35 37 0 0 0
SMALL
GASTEIGER

@<TRIPOS>ATOM
      1 C          59.1430   89.8781    6.1465 C.ar    1  UNL1        0.1454
      2 C          60.5019   90.2856    5.6591 C.ar    1  UNL1        0.0388
      3 C          60.6449   91.4470    4.7206 C.ar    1  UNL1        0.0178
      4 C          59.4290   92.2008    4.2695 C.ar    1  UNL1        0.0518
      5 C          58.0702   91.7933    4.7569 C.ar    1  UNL1        0.0178
      6 C          57.9273   90.6319    5.6954 C.ar    1  UNL1        0.0388
      7 N          59.5720   93.3621    3.3310 N.am    1  UNL1       -0.2681
      8 C          60.5196   93.2770    2.1713 C.2     1  UNL1        0.3082
      9 O          61.3242   92.0305    1.9501 O.2     1  UNL1       -0.2522
     10 N          60.6626   94.4383    1.2327 N.am    1  UNL1       -0.2681
     11 H          59.0439   94.1802    3.4761 H       1  UNL1        0.1564
     12 H          60.1345   95.2564    1.3779 H       1  UNL1        0.1564
     13 C          61.6102   94.3532    0.0731 C.ar    1  UNL1        0.0516
     14 C          61.2764   93.4886   -1.1063 C.ar    1  UNL1        0.0156
     15 C          62.2240   93.4035   -2.2660 C.ar    1  UNL1        0.0126
     16 C          63.5054   94.1830   -2.2463 C.ar    1  UNL1        0.0616
     17 CL         64.4530   94.0979   -3.4059 Cl      1  UNL1       -0.0823
     18 C          63.8392   95.0476   -1.0668 C.ar    1  UNL1        0.0832
     19 C          62.8916   95.1327    0.0928 C.ar    1  UNL1        0.0194
     20 C          65.1206   95.8271   -1.0470 C.3     1  UNL1        0.4194
     21 F          66.4020   96.6066   -1.0273 F       1  UNL1       -0.1658
     22 F          64.5164   96.8437   -1.9698 F       1  UNL1       -0.1658
     23 F          65.7248   94.8105   -0.1243 F       1  UNL1       -0.1658
     24 O          59.0001   88.7167    7.0850 O.3     1  UNL1       -0.4534
     25 C          61.5863   87.1476    9.6539 C.ar    1  UNL1        0.1375
     26 C          60.6564   87.2862    8.4852 C.ar    1  UNL1        0.0612
     27 C          59.9300   88.5781    8.2538 C.ar    1  UNL1        0.1485
     28 C          60.1336   89.7312    9.1912 C.ar    1  UNL1        0.0582
     29 C          61.0635   89.5925   10.3600 C.ar    1  UNL1        0.1021
     30 N          61.7899   88.3007   10.5913 N.ar    1  UNL1       -0.2391
     31 C          62.9484   83.8806   11.4487 C.3     1  UNL1        0.1110
     32 N          62.2220   85.1724   11.2174 N.am    1  UNL1       -0.2979
     33 C          62.3127   85.8557    9.8852 C.2     1  UNL1        0.2637
     34 O          63.1298   85.2472    8.7843 O.2     1  UNL1       -0.2685
     35 H          61.6857   85.5718   11.9400 H       1  UNL1        0.1498
@<TRIPOS>BOND
     1    31    32    1
     2    32    33   am
     3    33    34    2
     4    33    25    1
     5    25    26   ar
     6    26    27   ar
     7    27    24    1
     8    24     1    1
     9     1     2   ar
    10     2     3   ar
    11     3     4   ar
    12     4     7    1
    13     7     8   am
    14     8     9    2
    15     8    10   am
    16    10    13    1
    17    13    14   ar
    18    14    15   ar
    19    15    16   ar
    20    16    17    1
    21    16    18   ar
    22    18    20    1
    23    20    21    1
    24    20    22    1
    25    20    23    1
    26    18    19   ar
    27     4     5   ar
    28     5     6   ar
    29    27    28   ar
    30    28    29   ar
    31    29    30   ar
    32    30    25   ar
    33     6     1   ar
    34    19    13   ar
    35    32    35    1
    36     7    11    1
    37    10    12    1
@<TRIPOS>MOLECULE
*****
 35 37 0 0 0
SMALL
GASTEIGER

@<TRIPOS>ATOM
      1 C          59.4748   92.4672    4.1225 C.ar    1  UNL1        0.1454
      2 C          58.0700   92.1467    4.5399 C.ar    1  UNL1        0.0388
      3 C          57.7985   90.9505    5.4031 C.ar    1  UNL1        0.0178
      4 C          58.9317   90.0747    5.8491 C.ar    1  UNL1        0.0518
      5 C          60.3364   90.3951    5.4318 C.ar    1  UNL1        0.0178
      6 C          60.6079   91.5914    4.5685 C.ar    1  UNL1        0.0388
      7 N          58.6602   88.8784    6.7124 N.am    1  UNL1       -0.2681
      8 C          59.6595   88.4599    7.7499 C.2     1  UNL1        0.3082
      9 O          60.9302   89.2376    7.9241 O.2     1  UNL1       -0.2522
     10 N          59.3880   87.2636    8.6132 N.am    1  UNL1       -0.2681
     11 H          57.8262   88.3679    6.5980 H       1  UNL1        0.1564
     12 H          58.5539   86.7532    8.4988 H       1  UNL1        0.1564
     13 C          60.3871   86.8451    9.6507 C.ar    1  UNL1        0.0516
     14 C          60.4751   87.5890   10.9502 C.ar    1  UNL1        0.0156
     15 C          61.4744   87.1705   11.9878 C.ar    1  UNL1        0.0126
     16 C          62.3855   86.0081   11.7257 C.ar    1  UNL1        0.0616
     17 CL         63.3847   85.5896   12.7632 Cl      1  UNL1       -0.0823
     18 C          62.2975   85.2643   10.4261 C.ar    1  UNL1        0.0832
     19 C          61.2983   85.6828    9.3886 C.ar    1  UNL1        0.0194
     20 C          63.2087   84.1019   10.1640 C.3     1  UNL1        0.4194
     21 F          64.1199   82.9396    9.9019 F       1  UNL1       -0.1658
     22 F          62.5782   83.3516   11.2996 F       1  UNL1       -0.1658
     23 F          63.8392   84.8522    9.0284 F       1  UNL1       -0.1658
     24 O          59.7463   93.6634    3.2593 O.3     1  UNL1       -0.4534
     25 C          61.9057   93.7622   -0.0690 C.ar    1  UNL1        0.1375
     26 C          61.4995   93.9474    1.3630 C.ar    1  UNL1        0.0612
     27 C          60.1525   93.4782    1.8272 C.ar    1  UNL1        0.1485
     28 C          59.2117   92.8238    0.8594 C.ar    1  UNL1        0.0582
     29 C          59.6180   92.6386   -0.5726 C.ar    1  UNL1        0.1021
     30 N          60.9650   93.1078   -1.0368 N.ar    1  UNL1       -0.2391
     31 C          65.4087   95.6262   -0.1379 C.3     1  UNL1        0.1110
     32 N          64.0617   95.1571    0.3263 N.am    1  UNL1       -0.2979
     33 C          63.2527   94.2313   -0.5331 C.2     1  UNL1        0.2637
     34 O          63.7909   93.7748   -1.8567 O.2     1  UNL1       -0.2685
     35 H          63.7085   95.4567    1.1950 H       1  UNL1        0.1498
@<TRIPOS>BOND
     1    31    32    1
     2    32    33   am
     3    33    34    2
     4    33    25    1
     5    25    26   ar
     6    26    27   ar
     7    27    24    1
     8    24     1    1
     9     1     2   ar
    10     2     3   ar
    11     3     4   ar
    12     4     7    1
    13     7     8   am
    14     8     9    2
    15     8    10   am
    16    10    13    1
    17    13    14   ar
    18    14    15   ar
    19    15    16   ar
    20    16    17    1
    21    16    18   ar
    22    18    20    1
    23    20    21    1
    24    20    22    1
    25    20    23    1
    26    18    19   ar
    27     4     5   ar
    28     5     6   ar
    29    27    28   ar
    30    28    29   ar
    31    29    30   ar
    32    30    25   ar
    33     6     1   ar
    34    19    13   ar
    35    32    35    1
    36     7    11    1
    37    10    12    1
@<TRIPOS>MOLECULE
*****
 35 37 0 0 0
SMALL
GASTEIGER

@<TRIPOS>ATOM
      1 C          58.8951   89.9521    6.0011 C.ar    1  UNL1        0.1454
      2 C          60.3091   90.2646    5.6099 C.ar    1  UNL1        0.0388
      3 C          60.6037   91.4617    4.7553 C.ar    1  UNL1        0.0178
      4 C          59.4843   92.3462    4.2920 C.ar    1  UNL1        0.0518
      5 C          58.0704   92.0337    4.6832 C.ar    1  UNL1        0.0178
      6 C          57.7758   90.8366    5.5377 C.ar    1  UNL1        0.0388
      7 N          59.7789   93.5433    3.4374 N.am    1  UNL1       -0.2681
      8 C          60.1837   93.3606    2.0046 C.2     1  UNL1        0.3082
      9 O          60.2939   91.9809    1.4264 O.2     1  UNL1       -0.2522
     10 N          60.4783   94.5577    1.1501 N.am    1  UNL1       -0.2681
     11 H          59.7066   94.4488    3.8169 H       1  UNL1        0.1564
     12 H          60.4060   95.4632    1.5296 H       1  UNL1        0.1564
     13 C          60.8831   94.3751   -0.2827 C.ar    1  UNL1        0.0516
     14 C          62.3326   94.2283   -0.6396 C.ar    1  UNL1        0.0156
     15 C          62.7374   94.0456   -2.0724 C.ar    1  UNL1        0.0126
     16 C          61.6927   94.0098   -3.1482 C.ar    1  UNL1        0.0616
     17 CL         62.0975   93.8272   -4.5809 Cl      1  UNL1       -0.0823
     18 C          60.2432   94.1567   -2.7912 C.ar    1  UNL1        0.0832
     19 C          59.8384   94.3393   -1.3584 C.ar    1  UNL1        0.0194
     20 C          59.1985   94.1209   -3.8670 C.3     1  UNL1        0.4194
     21 F          58.1538   94.0850   -4.9428 F       1  UNL1       -0.1658
     22 F          58.9250   92.6797   -3.5534 F       1  UNL1       -0.1658
     23 F          59.4721   95.5620   -4.1806 F       1  UNL1       -0.1658
     24 O          58.6004   88.7550    6.8556 O.3     1  UNL1       -0.4534
     25 C          61.3941   88.5975    9.6700 C.ar    1  UNL1        0.1375
     26 C          60.3432   89.1353    8.7446 C.ar    1  UNL1        0.0612
     27 C          59.6514   88.2172    7.7810 C.ar    1  UNL1        0.1485
     28 C          60.0105   86.7613    7.7428 C.ar    1  UNL1        0.0582
     29 C          61.0614   86.2236    8.6681 C.ar    1  UNL1        0.1021
     30 N          61.7532   87.1416    9.6317 N.ar    1  UNL1       -0.2391
     31 C          62.9813   90.0104   13.0217 C.3     1  UNL1        0.1110
     32 N          62.2895   89.0923   12.0581 N.am    1  UNL1       -0.2979
     33 C          62.0859   89.5155   10.6336 C.2     1  UNL1        0.2637
     34 O          62.5742   90.8568   10.1726 O.2     1  UNL1       -0.2685
     35 H          61.9690   88.2120   12.3607 H       1  UNL1        0.1498
@<TRIPOS>BOND
     1    31    32    1
     2    32    33   am
     3    33    34    2
     4    33    25    1
     5    25    26   ar
     6    26    27   ar
     7    27    24    1
     8    24     1    1
     9     1     2   ar
    10     2     3   ar
    11     3     4   ar
    12     4     7    1
    13     7     8   am
    14     8     9    2
    15     8    10   am
    16    10    13    1
    17    13    14   ar
    18    14    15   ar
    19    15    16   ar
    20    16    17    1
    21    16    18   ar
    22    18    20    1
    23    20    21    1
    24    20    22    1
    25    20    23    1
    26    18    19   ar
    27     4     5   ar
    28     5     6   ar
    29    27    28   ar
    30    28    29   ar
    31    29    30   ar
    32    30    25   ar
    33     6     1   ar
    34    19    13   ar
    35    32    35    1
    36     7    11    1
    37    10    12    1
