@<TRIPOS>MOLECULE
*****
 37 40 0 0 0
SMALL
GASTEIGER

@<TRIPOS>ATOM
      1 C          62.6781   88.5748   11.5473 C.3     1  UNL1        0.0468
      2 C          61.8408   89.8091   10.0704 C.3     1  UNL1        0.0069
      3 C          63.1890   88.6693   12.3596 C.3     1  UNL1        0.0500
      4 C          63.5537   88.0585   13.0107 C.3     1  UNL1        0.1694
      5 C          63.9027   86.8977   13.6939 C.3     1  UNL1        0.0435
      6 C          64.6398   86.4630   14.9258 C.3     1  UNL1        0.0040
      7 C          63.4684   86.9246   12.9920 C.3     1  UNL1        0.0038
      8 C          63.9845   89.4087   13.5626 C.3     1  UNL1        0.0001
      9 C          63.0180   86.9624   12.2632 C.3     1  UNL1        0.0001
     10 C          62.7919   86.3163   11.9668 C.3     1  UNL1        0.0005
     11 C          62.5516   85.5928   11.6558 C.3     1  UNL1        0.0093
     12 C          62.3133   84.1298   11.4255 C.3     1  UNL1        0.0082
     13 C          62.9608   83.3727   12.5469 C.3     1  UNL1        0.0645
     14 C          63.5992   84.3677   13.4702 C.2     1  UNL1        0.1504
     15 O          64.3573   84.0468   14.7241 O.2     1  UNL1       -0.2961
     16 C          63.3462   85.7398   12.9194 C.3     1  UNL1        0.0610
     17 C          62.3254   86.8724   11.1578 C.3     1  UNL1        0.0276
     18 C          61.2529   85.8366    9.5400 C.3     1  UNL1        0.0025
     19 C          62.3204   87.8305   11.0495 C.3     1  UNL1        0.1141
     20 O          61.2393   88.4679    9.2426 O.3     1  UNL1       -0.3841
     21 H          61.2614   89.4354    9.1770 H       1  UNL1        0.2103
     22 C          63.7886   91.6110   10.9191 C.2     1  UNL1       -0.0048
     23 C          62.7311   90.6689   11.4133 C.2     1  UNL1       -0.0243
     24 O          64.6262   89.0943   14.6284 O.3     1  UNL1       -0.4516
     25 C          64.7674   90.5873   14.5989 C.2     1  UNL1        0.3283
     26 O          63.5756   91.4587   14.8643 O.2     1  UNL1       -0.2491
     27 C          66.1002   91.2090   14.3041 C.3     1  UNL1        0.1715
     28 S          66.1941   92.6762   14.0065 S.3     1  UNL1       -0.1003
     29 C          66.5454   93.1402   12.6240 C.ar    1  UNL1        0.0447
     30 C          66.1605   94.5187   12.1752 C.ar    1  UNL1        0.1050
     31 N          66.5117   94.9827   10.7926 N.ar    1  UNL1       -0.2421
     32 C          67.2479   94.0681    9.8590 C.ar    1  UNL1        0.0970
     33 C          67.6328   92.6896   10.3079 C.ar    1  UNL1        0.0266
     34 C          67.2815   92.2256   11.6904 C.ar    1  UNL1        0.0074
     35 C          68.3689   91.7750    9.3742 C.3     1  UNL1        0.1652
     36 O          68.7730   92.2594    8.0133 O.3     1  UNL1       -0.3772
     37 H          67.9795   92.4294    7.4819 H       1  UNL1        0.2109
@<TRIPOS>BOND
     1    22    23    2
     2    23     1    1
     3     1     2    1
     4     1     3    1
     5     3     4    1
     6     4    24    1
     7    24    25    1
     8    25    26    2
     9    25    27    1
    10    27    28    1
    11    28    29    1
    12    29    30   ar
    13    30    31   ar
    14    31    32   ar
    15    32    33   ar
    16    33    35    1
    17    35    36    1
    18    33    34   ar
    19     4     5    1
    20     5     6    1
    21     5     7    1
    22     7     8    1
    23     7     9    1
    24     9    10    1
    25    11    10    1
    26    11    12    1
    27    12    13    1
    28    13    14    1
    29    14    15    2
    30    16    14    1
    31    11    17    1
    32    17    18    1
    33    17    19    1
    34    19    20    1
    35    19     1    1
    36    34    29   ar
    37    16     5    1
    38    16    11    1
    39    36    37    1
    40    20    21    1
@<TRIPOS>MOLECULE
*****
 37 40 0 0 0
SMALL
GASTEIGER

@<TRIPOS>ATOM
      1 C          63.3464   87.1211   12.8124 C.3     1  UNL1        0.0468
      2 C          64.2615   85.8399   14.2005 C.3     1  UNL1        0.0069
      3 C          63.2268   88.0682   12.6769 C.3     1  UNL1        0.0500
      4 C          62.7903   88.6121   12.0109 C.3     1  UNL1        0.1694
      5 C          62.0742   89.0197   10.8896 C.3     1  UNL1        0.0435
      6 C          61.6061   90.2750   10.2149 C.3     1  UNL1        0.0040
      7 C          62.2314   88.2354   11.0948 C.3     1  UNL1        0.0038
      8 C          63.3472   89.6588   12.9634 C.3     1  UNL1        0.0001
      9 C          62.3995   87.4241   11.3158 C.3     1  UNL1        0.0001
     10 C          62.1396   86.8867   10.8684 C.3     1  UNL1        0.0005
     11 C          61.8443   86.3085   10.3620 C.3     1  UNL1        0.0093
     12 C          61.1656   85.5896    9.2340 C.3     1  UNL1        0.0082
     13 C          60.5601   86.6189    8.3262 C.3     1  UNL1        0.0645
     14 C          60.8646   87.9738    8.8932 C.2     1  UNL1        0.1504
     15 O          60.4485   89.2895    8.3052 O.2     1  UNL1       -0.2961
     16 C          61.6584   87.7819   10.1515 C.3     1  UNL1        0.0610
     17 C          62.5814   86.1473   11.5314 C.3     1  UNL1        0.0276
     18 C          62.3989   83.9952   11.1125 C.3     1  UNL1        0.0025
     19 C          63.0790   86.3253   12.3378 C.3     1  UNL1        0.1141
     20 O          63.7656   84.4843   13.3273 O.3     1  UNL1       -0.3841
     21 H          64.2591   84.7135   14.1303 H       1  UNL1        0.2103
     22 C          63.9590   88.1126   15.8925 C.2     1  UNL1       -0.0048
     23 C          64.4130   87.6263   14.5481 C.2     1  UNL1       -0.0243
     24 O          62.9728   90.7641   12.4297 O.3     1  UNL1       -0.4516
     25 C          63.9646   91.2492   13.4451 C.2     1  UNL1        0.3283
     26 O          63.5460   91.4342   14.8735 O.2     1  UNL1       -0.2491
     27 C          65.3750   91.5492   13.0320 C.3     1  UNL1        0.1715
     28 S          65.8062   92.9690   12.8122 S.3     1  UNL1       -0.1003
     29 C          66.5861   93.3344   11.5840 C.ar    1  UNL1        0.0447
     30 C          67.5003   92.3287   10.9494 C.ar    1  UNL1        0.1050
     31 N          68.2802   92.6940    9.7212 N.ar    1  UNL1       -0.2421
     32 C          68.1459   94.0651    9.1278 C.ar    1  UNL1        0.0970
     33 C          67.2317   95.0708    9.7625 C.ar    1  UNL1        0.0266
     34 C          66.4518   94.7055   10.9906 C.ar    1  UNL1        0.0074
     35 C          67.0974   96.4419    9.1691 C.3     1  UNL1        0.1652
     36 O          67.9581   96.8444    8.0084 O.3     1  UNL1       -0.3772
     37 H          68.8855   96.8797    8.2905 H       1  UNL1        0.2109
@<TRIPOS>BOND
     1    22    23    2
     2    23     1    1
     3     1     2    1
     4     1     3    1
     5     3     4    1
     6     4    24    1
     7    24    25    1
     8    25    26    2
     9    25    27    1
    10    27    28    1
    11    28    29    1
    12    29    30   ar
    13    30    31   ar
    14    31    32   ar
    15    32    33   ar
    16    33    35    1
    17    35    36    1
    18    33    34   ar
    19     4     5    1
    20     5     6    1
    21     5     7    1
    22     7     8    1
    23     7     9    1
    24     9    10    1
    25    11    10    1
    26    11    12    1
    27    12    13    1
    28    13    14    1
    29    14    15    2
    30    16    14    1
    31    11    17    1
    32    17    18    1
    33    17    19    1
    34    19    20    1
    35    19     1    1
    36    34    29   ar
    37    16     5    1
    38    16    11    1
    39    36    37    1
    40    20    21    1
@<TRIPOS>MOLECULE
*****
 37 40 0 0 0
SMALL
GASTEIGER

@<TRIPOS>ATOM
      1 C          62.5680   88.4292   11.4236 C.3     1  UNL1        0.0468
      2 C          61.7082   89.6498    9.9483 C.3     1  UNL1        0.0069
      3 C          63.0707   88.5321   12.2399 C.3     1  UNL1        0.0500
      4 C          63.4471   87.9273   12.8898 C.3     1  UNL1        0.1694
      5 C          63.8221   86.7720   13.5686 C.3     1  UNL1        0.0435
      6 C          64.5622   86.3495   14.8030 C.3     1  UNL1        0.0040
      7 C          63.3920   86.7917   12.8639 C.3     1  UNL1        0.0038
      8 C          63.8382   89.2851   13.4527 C.3     1  UNL1        0.0001
      9 C          62.9457   86.8220   12.1323 C.3     1  UNL1        0.0001
     10 C          62.7387   86.1719   11.8306 C.3     1  UNL1        0.0005
     11 C          62.5197   85.4442   11.5136 C.3     1  UNL1        0.0093
     12 C          62.3218   83.9769   11.2731 C.3     1  UNL1        0.0082
     13 C          62.9816   83.2303   12.3944 C.3     1  UNL1        0.0645
     14 C          63.5872   84.2362   13.3279 C.2     1  UNL1        0.1504
     15 O          64.3452   83.9280   14.5851 O.2     1  UNL1       -0.2961
     16 C          63.3017   85.6045   12.7836 C.3     1  UNL1        0.0610
     17 C          62.2631   86.7204   11.0217 C.3     1  UNL1        0.0276
     18 C          61.2292   85.6664    9.3905 C.3     1  UNL1        0.0025
     19 C          62.2334   87.6786   10.9189 C.3     1  UNL1        0.1141
     20 O          61.1479   88.2982    9.1085 O.3     1  UNL1       -0.3841
     21 H          61.1449   89.2664    9.0487 H       1  UNL1        0.2103
     22 C          63.5475   91.4907   10.7072 C.2     1  UNL1       -0.0048
     23 C          62.5663   90.5247   11.3023 C.2     1  UNL1       -0.0243
     24 O          64.4809   88.9813   14.5209 O.3     1  UNL1       -0.4516
     25 C          63.6897   89.7493   15.5378 C.2     1  UNL1        0.3283
     26 O          62.8309   89.0191   16.5273 O.2     1  UNL1       -0.2491
     27 C          63.7574   91.2475   15.5652 C.3     1  UNL1        0.1715
     28 S          65.0008   91.9334   16.0485 S.3     1  UNL1       -0.1003
     29 C          66.1749   92.0933   15.1287 C.ar    1  UNL1        0.0447
     30 C          67.5644   92.1563   15.6902 C.ar    1  UNL1        0.1050
     31 N          68.7384   92.3162   14.7704 N.ar    1  UNL1       -0.2421
     32 C          68.5230   92.4131   13.2891 C.ar    1  UNL1        0.0970
     33 C          67.1335   92.3502   12.7276 C.ar    1  UNL1        0.0266
     34 C          65.9594   92.1903   13.6474 C.ar    1  UNL1        0.0074
     35 C          66.9180   92.4471   11.2463 C.3     1  UNL1        0.1652
     36 O          68.0325   92.9091   10.3549 O.3     1  UNL1       -0.3772
     37 H          68.2393   93.8365   10.5500 H       1  UNL1        0.2109
@<TRIPOS>BOND
     1    22    23    2
     2    23     1    1
     3     1     2    1
     4     1     3    1
     5     3     4    1
     6     4    24    1
     7    24    25    1
     8    25    26    2
     9    25    27    1
    10    27    28    1
    11    28    29    1
    12    29    30   ar
    13    30    31   ar
    14    31    32   ar
    15    32    33   ar
    16    33    35    1
    17    35    36    1
    18    33    34   ar
    19     4     5    1
    20     5     6    1
    21     5     7    1
    22     7     8    1
    23     7     9    1
    24     9    10    1
    25    11    10    1
    26    11    12    1
    27    12    13    1
    28    13    14    1
    29    14    15    2
    30    16    14    1
    31    11    17    1
    32    17    18    1
    33    17    19    1
    34    19    20    1
    35    19     1    1
    36    34    29   ar
    37    16     5    1
    38    16    11    1
    39    36    37    1
    40    20    21    1
@<TRIPOS>MOLECULE
*****
 37 40 0 0 0
SMALL
GASTEIGER

@<TRIPOS>ATOM
      1 C          63.4198   90.6977   12.0624 C.3     1  UNL1        0.0468
      2 C          62.6541   90.3397   10.1411 C.3     1  UNL1        0.0069
      3 C          63.2909   90.3722   12.9608 C.3     1  UNL1        0.0500
      4 C          63.6759   90.5750   13.8214 C.3     1  UNL1        0.1694
      5 C          64.4498   91.1391   14.8309 C.3     1  UNL1        0.0435
      6 C          64.6653   91.0357   16.3117 C.3     1  UNL1        0.0040
      7 C          64.4839   91.3470   14.0324 C.3     1  UNL1        0.0038
      8 C          62.6735   89.4851   14.1685 C.3     1  UNL1        0.0001
      9 C          64.5124   91.5562   13.2013 C.3     1  UNL1        0.0001
     10 C          64.9946   92.0882   12.9987 C.3     1  UNL1        0.0005
     11 C          65.5329   92.6771   12.7954 C.3     1  UNL1        0.0093
     12 C          66.5910   93.7396   12.8347 C.3     1  UNL1        0.0082
     13 C          67.0444   93.8897   14.2566 C.3     1  UNL1        0.0645
     14 C          66.2665   92.9201   15.0961 C.2     1  UNL1        0.1504
     15 O          66.3994   92.7329   16.5784 O.2     1  UNL1       -0.2961
     16 C          65.3323   92.1707   14.1930 C.3     1  UNL1        0.0610
     17 C          64.6605   91.9732   11.9709 C.3     1  UNL1        0.0276
     18 C          65.5202   93.1941   10.3551 C.3     1  UNL1        0.0025
     19 C          63.9872   91.3609   11.6523 C.3     1  UNL1        0.1141
     20 O          63.6711   91.5124    9.4804 O.3     1  UNL1       -0.3841
     21 H          62.9878   90.8800    9.2082 H       1  UNL1        0.2103
     22 C          62.0032   87.8581   11.1817 C.2     1  UNL1       -0.0048
     23 C          61.9404   89.3263   11.4823 C.2     1  UNL1       -0.0243
     24 O          62.8161   89.3541   15.4370 O.3     1  UNL1       -0.4516
     25 C          63.3830   87.9978   15.7351 C.2     1  UNL1        0.3283
     26 O          63.0582   87.3178   17.0321 O.2     1  UNL1       -0.2491
     27 C          64.2747   87.3215   14.7365 C.3     1  UNL1        0.1715
     28 S          64.7730   85.9308   14.9967 S.3     1  UNL1       -0.1003
     29 C          63.9947   84.7495   14.4977 C.ar    1  UNL1        0.0447
     30 C          62.9457   84.1214   15.3666 C.ar    1  UNL1        0.1050
     31 N          62.1674   82.9401   14.8676 N.ar    1  UNL1       -0.2421
     32 C          62.4382   82.3871   13.4998 C.ar    1  UNL1        0.0970
     33 C          63.4872   83.0152   12.6310 C.ar    1  UNL1        0.0266
     34 C          64.2655   84.1965   13.1299 C.ar    1  UNL1        0.0074
     35 C          63.7580   82.4622   11.2632 C.3     1  UNL1        0.1652
     36 O          65.0292   82.8155   10.5495 O.3     1  UNL1       -0.3772
     37 H          65.0322   83.7637   10.3447 H       1  UNL1        0.2109
@<TRIPOS>BOND
     1    22    23    2
     2    23     1    1
     3     1     2    1
     4     1     3    1
     5     3     4    1
     6     4    24    1
     7    24    25    1
     8    25    26    2
     9    25    27    1
    10    27    28    1
    11    28    29    1
    12    29    30   ar
    13    30    31   ar
    14    31    32   ar
    15    32    33   ar
    16    33    35    1
    17    35    36    1
    18    33    34   ar
    19     4     5    1
    20     5     6    1
    21     5     7    1
    22     7     8    1
    23     7     9    1
    24     9    10    1
    25    11    10    1
    26    11    12    1
    27    12    13    1
    28    13    14    1
    29    14    15    2
    30    16    14    1
    31    11    17    1
    32    17    18    1
    33    17    19    1
    34    19    20    1
    35    19     1    1
    36    34    29   ar
    37    16     5    1
    38    16    11    1
    39    36    37    1
    40    20    21    1
@<TRIPOS>MOLECULE
*****
 37 40 0 0 0
SMALL
GASTEIGER

@<TRIPOS>ATOM
      1 C          62.6751   88.1204   11.5860 C.3     1  UNL1        0.0468
      2 C          61.8928   89.4381   10.1517 C.3     1  UNL1        0.0069
      3 C          63.1519   88.1677   12.4228 C.3     1  UNL1        0.0500
      4 C          63.4927   87.5203   13.0509 C.3     1  UNL1        0.1694
      5 C          63.8192   86.3217   13.6779 C.3     1  UNL1        0.0435
      6 C          64.5076   85.8166   14.9112 C.3     1  UNL1        0.0040
      7 C          63.4138   86.3893   12.9617 C.3     1  UNL1        0.0038
      8 C          63.8939   88.8364   13.6991 C.3     1  UNL1        0.0001
      9 C          62.9934   86.4692   12.2185 C.3     1  UNL1        0.0001
     10 C          62.7827   85.8412   11.8753 C.3     1  UNL1        0.0005
     11 C          62.5589   85.1369   11.5123 C.3     1  UNL1        0.0093
     12 C          62.3375   83.6896   11.1862 C.3     1  UNL1        0.0082
     13 C          62.9423   82.8688   12.2864 C.3     1  UNL1        0.0645
     14 C          63.5375   83.8088   13.2925 C.2     1  UNL1        0.1504
     15 O          64.2454   83.4159   14.5552 O.2     1  UNL1       -0.2961
     16 C          63.3006   85.2105   12.8141 C.3     1  UNL1        0.0610
     17 C          62.3470   86.4432   11.0822 C.3     1  UNL1        0.0276
     18 C          61.3466   85.5026    9.3632 C.3     1  UNL1        0.0025
     19 C          62.3417   87.4060   11.0307 C.3     1  UNL1        0.1141
     20 O          61.3321   88.1469    9.2218 O.3     1  UNL1       -0.3841
     21 H          61.3522   89.1167    9.2146 H       1  UNL1        0.2103
     22 C          63.7049   91.1926   10.9972 C.2     1  UNL1       -0.0048
     23 C          62.7232   90.2188   11.5786 C.2     1  UNL1       -0.0243
     24 O          64.4931   88.4608   14.7698 O.3     1  UNL1       -0.4516
     25 C          63.6905   89.2338   15.7740 C.2     1  UNL1        0.3283
     26 O          63.1506   88.5455   16.9925 O.2     1  UNL1       -0.2491
     27 C          63.4279   90.6949   15.5597 C.3     1  UNL1        0.1715
     28 S          64.3938   91.7155   16.0846 S.3     1  UNL1       -0.1003
     29 C          65.6754   91.9818   15.3519 C.ar    1  UNL1        0.0447
     30 C          65.8239   91.5555   13.9214 C.ar    1  UNL1        0.1050
     31 N          67.1055   91.8218   13.1888 N.ar    1  UNL1       -0.2421
     32 C          68.2384   92.5143   13.8866 C.ar    1  UNL1        0.0970
     33 C          68.0899   92.9405   15.3171 C.ar    1  UNL1        0.0266
     34 C          66.8083   92.6742   16.0498 C.ar    1  UNL1        0.0074
     35 C          69.2228   93.6330   16.0149 C.3     1  UNL1        0.1652
     36 O          69.0641   95.0511   16.4774 O.3     1  UNL1       -0.3772
     37 H          68.9675   95.6333   15.7076 H       1  UNL1        0.2109
@<TRIPOS>BOND
     1    22    23    2
     2    23     1    1
     3     1     2    1
     4     1     3    1
     5     3     4    1
     6     4    24    1
     7    24    25    1
     8    25    26    2
     9    25    27    1
    10    27    28    1
    11    28    29    1
    12    29    30   ar
    13    30    31   ar
    14    31    32   ar
    15    32    33   ar
    16    33    35    1
    17    35    36    1
    18    33    34   ar
    19     4     5    1
    20     5     6    1
    21     5     7    1
    22     7     8    1
    23     7     9    1
    24     9    10    1
    25    11    10    1
    26    11    12    1
    27    12    13    1
    28    13    14    1
    29    14    15    2
    30    16    14    1
    31    11    17    1
    32    17    18    1
    33    17    19    1
    34    19    20    1
    35    19     1    1
    36    34    29   ar
    37    16     5    1
    38    16    11    1
    39    36    37    1
    40    20    21    1
@<TRIPOS>MOLECULE
*****
 37 40 0 0 0
SMALL
GASTEIGER

@<TRIPOS>ATOM
      1 C          64.1398   90.0729   13.0909 C.3     1  UNL1        0.0468
      2 C          64.9131   91.9791   13.5084 C.3     1  UNL1        0.0069
      3 C          64.1454   89.1921   13.4832 C.3     1  UNL1        0.0500
      4 C          63.7673   88.3374   13.2455 C.3     1  UNL1        0.1694
      5 C          63.0809   87.3278   12.5780 C.3     1  UNL1        0.0435
      6 C          62.7674   85.8667   12.7082 C.3     1  UNL1        0.0040
      7 C          63.1366   88.1123   12.3264 C.3     1  UNL1        0.0038
      8 C          64.4878   88.0177   14.5463 C.3     1  UNL1        0.0001
      9 C          63.1999   88.9291   12.0730 C.3     1  UNL1        0.0001
     10 C          62.8570   89.1179   11.4379 C.3     1  UNL1        0.0005
     11 C          62.4718   89.3062   10.7349 C.3     1  UNL1        0.0093
     12 C          61.6700   89.2446    9.4688 C.3     1  UNL1        0.0082
     13 C          61.1831   87.8363    9.2966 C.3     1  UNL1        0.0645
     14 C          61.6841   87.0275   10.4563 C.2     1  UNL1        0.1504
     15 O          61.4326   85.5668   10.6866 O.2     1  UNL1       -0.2961
     16 C          62.4805   87.9360   11.3453 C.3     1  UNL1        0.0610
     17 C          63.2137   90.1360   11.5701 C.3     1  UNL1        0.0276
     18 C          62.7302   91.7065   10.1071 C.3     1  UNL1        0.0025
     19 C          63.7538   90.4639   12.2984 C.3     1  UNL1        0.1141
     20 O          64.2137   92.6068   12.1074 O.3     1  UNL1       -0.3841
     21 H          64.7566   92.8894   12.8599 H       1  UNL1        0.2103
     22 C          66.7458   91.1147   14.8141 C.2     1  UNL1       -0.0048
     23 C          65.3144   90.6755   14.7227 C.2     1  UNL1       -0.0243
     24 O          64.2508   86.7671   14.7085 O.3     1  UNL1       -0.4516
     25 C          63.3473   86.5317   15.8824 C.2     1  UNL1        0.3283
     26 O          62.7977   87.6966   16.6512 O.2     1  UNL1       -0.2491
     27 C          62.9935   85.1316   16.2877 C.3     1  UNL1        0.1715
     28 S          63.7998   83.9756   15.7743 S.3     1  UNL1       -0.1003
     29 C          63.2410   83.0892   14.7010 C.ar    1  UNL1        0.0447
     30 C          61.9902   82.3012   14.9550 C.ar    1  UNL1        0.1050
     31 N          61.4313   81.4148   13.8817 N.ar    1  UNL1       -0.2421
     32 C          62.1232   81.3164   12.5545 C.ar    1  UNL1        0.0970
     33 C          63.3741   82.1044   12.3005 C.ar    1  UNL1        0.0266
     34 C          63.9329   82.9908   13.3738 C.ar    1  UNL1        0.0074
     35 C          64.0660   82.0060   10.9732 C.3     1  UNL1        0.1652
     36 O          65.0739   83.0428   10.5742 O.3     1  UNL1       -0.3772
     37 H          64.6309   83.8986   10.4633 H       1  UNL1        0.2109
@<TRIPOS>BOND
     1    22    23    2
     2    23     1    1
     3     1     2    1
     4     1     3    1
     5     3     4    1
     6     4    24    1
     7    24    25    1
     8    25    26    2
     9    25    27    1
    10    27    28    1
    11    28    29    1
    12    29    30   ar
    13    30    31   ar
    14    31    32   ar
    15    32    33   ar
    16    33    35    1
    17    35    36    1
    18    33    34   ar
    19     4     5    1
    20     5     6    1
    21     5     7    1
    22     7     8    1
    23     7     9    1
    24     9    10    1
    25    11    10    1
    26    11    12    1
    27    12    13    1
    28    13    14    1
    29    14    15    2
    30    16    14    1
    31    11    17    1
    32    17    18    1
    33    17    19    1
    34    19    20    1
    35    19     1    1
    36    34    29   ar
    37    16     5    1
    38    16    11    1
    39    36    37    1
    40    20    21    1
