@<TRIPOS>MOLECULE
*****
 42 43 0 0 0
SMALL
GASTEIGER

@<TRIPOS>ATOM
      1 O          63.5022   89.0641   13.8936 O.3     1  UNL1       -0.2926
      2 P          63.5404   90.0511   15.0224 P.3     1  UNL1        0.3697
      3 O          62.1746   89.6080   15.4562 O.2     1  UNL1       -0.2553
      4 O          63.5787   91.0381   16.1513 O.3     1  UNL1       -0.3218
      5 H          62.7542   90.9807   16.6590 H       1  UNL1        0.2198
      6 C          64.9062   90.4942   14.5887 C.3     1  UNL1        0.2579
      7 O          65.6393   91.5417   15.3732 O.3     1  UNL1       -0.3426
      8 C          67.0477   91.9046   15.0066 C.3     1  UNL1        0.1387
      9 C          67.9949   92.3944   16.0617 C.3     1  UNL1        0.0342
     10 C          67.5092   91.7778   13.5849 C.3     1  UNL1        0.1384
     11 N          67.0675   92.7809   12.5608 N.ar    1  UNL1       -0.2918
     12 C          66.0978   93.9028   12.7865 C.ar    1  UNL1        0.1798
     13 N          65.9491   94.6534   11.4963 N.ar    1  UNL1       -0.2195
     14 C          66.8268   93.9953   10.4733 C.ar    1  UNL1        0.1481
     15 C          67.0859   94.3004    9.0277 C.ar    1  UNL1        0.1480
     16 N          66.3946   95.4577    8.3698 N.pl3   1  UNL1       -0.3413
     17 N          68.0362   93.4481    8.2400 N.ar    1  UNL1       -0.2078
     18 C          68.7275   92.2908    8.8979 C.ar    1  UNL1        0.2015
     19 N          68.4684   91.9858   10.3435 N.ar    1  UNL1       -0.2048
     20 C          67.5180   92.8380   11.1312 C.ar    1  UNL1        0.1674
     21 H          65.7709   96.0170    8.8868 H       1  UNL1        0.1438
     22 H          66.5647   95.6579    7.4210 H       1  UNL1        0.1438
     23 C          63.5326   89.5468   12.4738 C.3     1  UNL1        0.1523
     24 C          62.6447   90.6780   12.0470 C.3     1  UNL1        0.0442
     25 C          61.5038   90.4224   11.1072 C.3     1  UNL1        0.0602
     26 S          60.2030   89.8924   11.6335 S.3     1  UNL1       -0.1402
     27 C          59.8230   88.4617   11.3914 C.3     1  UNL1        0.0576
     28 C          60.6936   87.5887   10.5369 C.3     1  UNL1        0.0116
     29 C          60.1864   87.0848    9.2182 C.3     1  UNL1        0.0009
     30 C          61.0261   86.1498    8.3994 C.3     1  UNL1        0.0000
     31 C          62.5162   86.1346    8.5709 C.3     1  UNL1        0.0000
     32 C          63.2333   84.8347    8.7854 C.3     1  UNL1        0.0000
     33 C          63.2469   84.2012   10.1450 C.3     1  UNL1        0.0000
     34 C          64.2378   83.1197   10.4586 C.3     1  UNL1        0.0000
     35 C          63.7699   81.7088   10.6591 C.3     1  UNL1        0.0000
     36 C          62.7099   81.4075   11.6768 C.3     1  UNL1        0.0000
     37 C          63.0849   81.2182   13.1167 C.3     1  UNL1        0.0000
     38 C          62.2047   81.7683   14.1995 C.3     1  UNL1        0.0000
     39 C          62.4229   83.1627   14.7075 C.3     1  UNL1        0.0000
     40 C          62.6964   84.2782   13.7427 C.3     1  UNL1        0.0000
     41 C          65.1751   84.6631   14.4196 C.3     1  UNL1        0.0000
     42 C          63.8491   85.2086   13.9791 C.3     1  UNL1        0.0000
@<TRIPOS>BOND
     1    41    42    1
     2    42    40    1
     3    40    39    1
     4    39    38    1
     5    38    37    1
     6    37    36    1
     7    36    35    1
     8    35    34    1
     9    34    33    1
    10    33    32    1
    11    32    31    1
    12    31    30    1
    13    30    29    1
    14    29    28    1
    15    28    27    1
    16    27    26    1
    17    26    25    1
    18    25    24    1
    19    24    23    1
    20    23     1    1
    21     1     2    1
    22     2     3    2
    23     2     4    1
    24     2     6    1
    25     6     7    1
    26     7     8    1
    27     8     9    1
    28     8    10    1
    29    10    11    1
    30    11    12   ar
    31    12    13   ar
    32    13    14   ar
    33    14    15   ar
    34    15    16    1
    35    15    17   ar
    36    17    18   ar
    37    18    19   ar
    38    19    20   ar
    39    20    11   ar
    40    20    14   ar
    41     4     5    1
    42    16    21    1
    43    16    22    1
@<TRIPOS>MOLECULE
*****
 42 43 0 0 0
SMALL
GASTEIGER

@<TRIPOS>ATOM
      1 O          63.6803   89.7703   12.6452 O.3     1  UNL1       -0.2926
      2 P          63.5161   90.1131   14.0962 P.3     1  UNL1        0.3697
      3 O          62.0421   89.8564   13.9900 O.2     1  UNL1       -0.2553
      4 O          63.3519   90.4558   15.5473 O.3     1  UNL1       -0.3218
      5 H          62.4178   90.3732   15.7953 H       1  UNL1        0.2198
      6 C          64.9902   90.3697   14.2024 C.3     1  UNL1        0.2579
      7 O          65.5084   91.3652   15.1975 O.3     1  UNL1       -0.3426
      8 C          66.8544   91.9958   14.9963 C.3     1  UNL1        0.1387
      9 C          67.5483   92.6654   16.1453 C.3     1  UNL1        0.0342
     10 C          67.5066   91.9568   13.6460 C.3     1  UNL1        0.1384
     11 N          67.0845   92.9252   12.5810 N.ar    1  UNL1       -0.2918
     12 C          66.1410   94.0773   12.7607 C.ar    1  UNL1        0.1798
     13 N          66.0053   94.7755   11.4401 N.ar    1  UNL1       -0.2195
     14 C          66.8649   94.0549   10.4442 C.ar    1  UNL1        0.1481
     15 C          67.1264   94.2924    8.9864 C.ar    1  UNL1        0.1480
     16 N          66.4593   95.4360    8.2813 N.pl3   1  UNL1       -0.3413
     17 N          68.0549   93.3862    8.2337 N.ar    1  UNL1       -0.2078
     18 C          68.7220   92.2426    8.9389 C.ar    1  UNL1        0.2015
     19 N          68.4605   92.0051   10.3966 N.ar    1  UNL1       -0.2048
     20 C          67.5319   92.9113   11.1493 C.ar    1  UNL1        0.1674
     21 H          65.8499   96.0307    8.7753 H       1  UNL1        0.1438
     22 H          66.6310   95.5918    7.3245 H       1  UNL1        0.1438
     23 C          62.5985   89.0223   11.9241 C.3     1  UNL1        0.1523
     24 C          62.2944   89.3404   10.4901 C.3     1  UNL1        0.0442
     25 C          60.8953   89.6935   10.0805 C.3     1  UNL1        0.0602
     26 S          60.2848   89.0546    8.8685 S.3     1  UNL1       -0.1402
     27 C          59.7506   87.6552    8.9469 C.3     1  UNL1        0.0576
     28 C          60.4981   86.5294    8.2958 C.3     1  UNL1        0.0116
     29 C          61.7365   85.9800    8.9397 C.3     1  UNL1        0.0009
     30 C          61.7648   85.7286   10.4182 C.3     1  UNL1        0.0000
     31 C          62.7430   84.7478   10.9937 C.3     1  UNL1        0.0000
     32 C          63.6176   83.9385   10.0827 C.3     1  UNL1        0.0000
     33 C          64.1435   82.6083   10.5345 C.3     1  UNL1        0.0000
     34 C          64.5887   82.4210   11.9546 C.3     1  UNL1        0.0000
     35 C          63.8016   81.5382   12.8771 C.3     1  UNL1        0.0000
     36 C          62.3312   81.7689   13.0629 C.3     1  UNL1        0.0000
     37 C          61.8288   82.4421   14.3057 C.3     1  UNL1        0.0000
     38 C          62.7870   83.1594   15.2097 C.3     1  UNL1        0.0000
     39 C          62.4601   84.5357   15.7087 C.3     1  UNL1        0.0000
     40 C          63.5624   85.5142   15.9867 C.3     1  UNL1        0.0000
     41 C          65.4674   84.8807   14.3375 C.3     1  UNL1        0.0000
     42 C          64.5172   85.8985   14.8954 C.3     1  UNL1        0.0000
@<TRIPOS>BOND
     1    41    42    1
     2    42    40    1
     3    40    39    1
     4    39    38    1
     5    38    37    1
     6    37    36    1
     7    36    35    1
     8    35    34    1
     9    34    33    1
    10    33    32    1
    11    32    31    1
    12    31    30    1
    13    30    29    1
    14    29    28    1
    15    28    27    1
    16    27    26    1
    17    26    25    1
    18    25    24    1
    19    24    23    1
    20    23     1    1
    21     1     2    1
    22     2     3    2
    23     2     4    1
    24     2     6    1
    25     6     7    1
    26     7     8    1
    27     8     9    1
    28     8    10    1
    29    10    11    1
    30    11    12   ar
    31    12    13   ar
    32    13    14   ar
    33    14    15   ar
    34    15    16    1
    35    15    17   ar
    36    17    18   ar
    37    18    19   ar
    38    19    20   ar
    39    20    11   ar
    40    20    14   ar
    41     4     5    1
    42    16    21    1
    43    16    22    1
@<TRIPOS>MOLECULE
*****
 42 43 0 0 0
SMALL
GASTEIGER

@<TRIPOS>ATOM
      1 O          63.8011   89.6336   13.1457 O.3     1  UNL1       -0.2926
      2 P          63.6446   90.0554   14.5766 P.3     1  UNL1        0.3697
      3 O          62.1638   89.8373   14.4789 O.2     1  UNL1       -0.2553
      4 O          63.4880   90.4772   16.0076 O.3     1  UNL1       -0.3218
      5 H          62.5515   90.4352   16.2564 H       1  UNL1        0.2198
      6 C          65.1254   90.2735   14.6744 C.3     1  UNL1        0.2579
      7 O          65.6605   91.6086   15.0999 O.3     1  UNL1       -0.3426
      8 C          67.1174   91.9218   14.9292 C.3     1  UNL1        0.1387
      9 C          67.9687   92.2087   16.1305 C.3     1  UNL1        0.0342
     10 C          67.7232   91.9482   13.5571 C.3     1  UNL1        0.1384
     11 N          67.2232   92.9258   12.5352 N.ar    1  UNL1       -0.2918
     12 C          66.2563   94.0451   12.7848 C.ar    1  UNL1        0.1798
     13 N          66.0379   94.7667   11.4881 N.ar    1  UNL1       -0.2195
     14 C          66.8699   94.0935   10.4371 C.ar    1  UNL1        0.1481
     15 C          67.0550   94.3696    8.9744 C.ar    1  UNL1        0.1480
     16 N          66.3225   95.5073    8.3273 N.pl3   1  UNL1       -0.3413
     17 N          67.9728   93.5078    8.1589 N.ar    1  UNL1       -0.2078
     18 C          68.7053   92.3700    8.8060 C.ar    1  UNL1        0.2015
     19 N          68.5202   92.0940   10.2687 N.ar    1  UNL1       -0.2048
     20 C          67.6025   92.9558   11.0842 C.ar    1  UNL1        0.1674
     21 H          65.7201   96.0729    8.8625 H       1  UNL1        0.1438
     22 H          66.4440   95.6885    7.3672 H       1  UNL1        0.1438
     23 C          63.5129   90.6066   12.0411 C.3     1  UNL1        0.1523
     24 C          62.3711   90.3574   11.1009 C.3     1  UNL1        0.0442
     25 C          62.1783   88.9970   10.4992 C.3     1  UNL1        0.0602
     26 S          60.7946   88.4886   10.2222 S.3     1  UNL1       -0.1402
     27 C          60.4254   88.0326    8.8418 C.3     1  UNL1        0.0576
     28 C          60.1080   86.5886    8.5886 C.3     1  UNL1        0.0116
     29 C          61.1427   85.6887    7.9806 C.3     1  UNL1        0.0009
     30 C          62.5867   85.8456    8.3552 C.3     1  UNL1        0.0000
     31 C          63.3756   84.6559    8.8156 C.3     1  UNL1        0.0000
     32 C          63.4352   84.3145   10.2751 C.3     1  UNL1        0.0000
     33 C          62.2096   84.4542   11.1286 C.3     1  UNL1        0.0000
     34 C          62.1850   85.4524   12.2479 C.3     1  UNL1        0.0000
     35 C          63.4639   86.0702   12.7302 C.3     1  UNL1        0.0000
     36 C          63.7926   86.0682   14.1937 C.3     1  UNL1        0.0000
     37 C          64.5325   84.9100   14.7946 C.3     1  UNL1        0.0000
     38 C          64.9166   83.7399   13.9384 C.3     1  UNL1        0.0000
     39 C          63.9018   82.6852   13.6105 C.3     1  UNL1        0.0000
     40 C          62.6940   82.5095   14.4825 C.3     1  UNL1        0.0000
     41 C          62.1043   80.1997   13.4494 C.3     1  UNL1        0.0000
     42 C          61.6803   81.4531   14.1558 C.3     1  UNL1        0.0000
@<TRIPOS>BOND
     1    41    42    1
     2    42    40    1
     3    40    39    1
     4    39    38    1
     5    38    37    1
     6    37    36    1
     7    36    35    1
     8    35    34    1
     9    34    33    1
    10    33    32    1
    11    32    31    1
    12    31    30    1
    13    30    29    1
    14    29    28    1
    15    28    27    1
    16    27    26    1
    17    26    25    1
    18    25    24    1
    19    24    23    1
    20    23     1    1
    21     1     2    1
    22     2     3    2
    23     2     4    1
    24     2     6    1
    25     6     7    1
    26     7     8    1
    27     8     9    1
    28     8    10    1
    29    10    11    1
    30    11    12   ar
    31    12    13   ar
    32    13    14   ar
    33    14    15   ar
    34    15    16    1
    35    15    17   ar
    36    17    18   ar
    37    18    19   ar
    38    19    20   ar
    39    20    11   ar
    40    20    14   ar
    41     4     5    1
    42    16    21    1
    43    16    22    1
@<TRIPOS>MOLECULE
*****
 42 43 0 0 0
SMALL
GASTEIGER

@<TRIPOS>ATOM
      1 O          63.5842   82.2264   14.6991 O.3     1  UNL1       -0.2926
      2 P          63.0398   81.1707   13.7832 P.3     1  UNL1        0.3697
      3 O          63.8609   80.1336   14.4904 O.2     1  UNL1       -0.2553
      4 O          62.4954   80.1149   12.8672 O.3     1  UNL1       -0.3218
      5 H          62.8787   79.2551   13.1009 H       1  UNL1        0.2198
      6 C          62.2186   82.2077   13.0759 C.3     1  UNL1        0.2579
      7 O          62.3641   82.3980   11.5952 O.3     1  UNL1       -0.3426
      8 C          63.0220   83.6347   11.0589 C.3     1  UNL1        0.1387
      9 C          64.2501   83.5208   10.2052 C.3     1  UNL1        0.0342
     10 C          62.4518   84.9854   11.3764 C.3     1  UNL1        0.1384
     11 N          61.9024   85.8449   10.2767 N.ar    1  UNL1       -0.2918
     12 C          61.9264   85.5243    8.8115 C.ar    1  UNL1        0.1798
     13 N          61.2713   86.6572    8.0784 N.ar    1  UNL1       -0.2195
     14 C          60.8425   87.6779    9.0904 C.ar    1  UNL1        0.1481
     15 C          60.1473   88.9996    8.9504 C.ar    1  UNL1        0.1480
     16 N          59.7573   89.5017    7.5918 N.pl3   1  UNL1       -0.3413
     17 N          59.8421   89.8193   10.1689 N.ar    1  UNL1       -0.2078
     18 C          60.2322   89.3173   11.5275 C.ar    1  UNL1        0.2015
     19 N          60.9274   87.9956   11.6676 N.ar    1  UNL1       -0.2048
     20 C          61.2326   87.1759   10.4491 C.ar    1  UNL1        0.1674
     21 H          59.9576   88.9637    6.7920 H       1  UNL1        0.1438
     22 H          59.3010   90.3692    7.4998 H       1  UNL1        0.1438
     23 C          64.3655   83.3769   14.1371 C.3     1  UNL1        0.1523
     24 C          64.1063   84.7705   14.6276 C.3     1  UNL1        0.0442
     25 C          63.7788   85.0084   16.0719 C.3     1  UNL1        0.0602
     26 S          62.4138   85.4932   16.4615 S.3     1  UNL1       -0.1402
     27 C          62.2687   86.6028   17.4603 C.3     1  UNL1        0.0576
     28 C          63.1752   87.7960   17.3930 C.3     1  UNL1        0.0116
     29 C          62.6940   89.0689   16.7619 C.3     1  UNL1        0.0009
     30 C          63.5069   89.7270   15.6866 C.3     1  UNL1        0.0000
     31 C          64.2071   88.8901   14.6574 C.3     1  UNL1        0.0000
     32 C          63.9839   89.1540   13.1978 C.3     1  UNL1        0.0000
     33 C          63.4380   90.4774   12.7499 C.3     1  UNL1        0.0000
     34 C          63.4843   90.8555   11.2991 C.3     1  UNL1        0.0000
     35 C          64.0660   92.1750   10.8860 C.3     1  UNL1        0.0000
     36 C          65.4911   92.2550   10.4249 C.3     1  UNL1        0.0000
     37 C          66.4122   93.2838   11.0107 C.3     1  UNL1        0.0000
     38 C          66.3856   93.5619   12.4844 C.3     1  UNL1        0.0000
     39 C          66.8628   92.5207   13.4529 C.3     1  UNL1        0.0000
     40 C          66.0725   92.2332   14.6950 C.3     1  UNL1        0.0000
     41 C          68.1083   92.5157   16.2843 C.3     1  UNL1        0.0000
     42 C          66.6305   92.5948   16.0396 C.3     1  UNL1        0.0000
@<TRIPOS>BOND
     1    41    42    1
     2    42    40    1
     3    40    39    1
     4    39    38    1
     5    38    37    1
     6    37    36    1
     7    36    35    1
     8    35    34    1
     9    34    33    1
    10    33    32    1
    11    32    31    1
    12    31    30    1
    13    30    29    1
    14    29    28    1
    15    28    27    1
    16    27    26    1
    17    26    25    1
    18    25    24    1
    19    24    23    1
    20    23     1    1
    21     1     2    1
    22     2     3    2
    23     2     4    1
    24     2     6    1
    25     6     7    1
    26     7     8    1
    27     8     9    1
    28     8    10    1
    29    10    11    1
    30    11    12   ar
    31    12    13   ar
    32    13    14   ar
    33    14    15   ar
    34    15    16    1
    35    15    17   ar
    36    17    18   ar
    37    18    19   ar
    38    19    20   ar
    39    20    11   ar
    40    20    14   ar
    41     4     5    1
    42    16    21    1
    43    16    22    1
@<TRIPOS>MOLECULE
*****
 42 43 0 0 0
SMALL
GASTEIGER

@<TRIPOS>ATOM
      1 O          61.5940   86.9985    8.8349 O.3     1  UNL1       -0.2926
      2 P          60.1567   87.2494    8.4864 P.3     1  UNL1        0.3697
      3 O          60.1564   86.0313    7.6110 O.2     1  UNL1       -0.2553
      4 O          58.7195   87.5003    8.1379 O.3     1  UNL1       -0.3218
      5 H          58.4095   86.8117    7.5291 H       1  UNL1        0.2198
      6 C          60.1571   88.4674    9.3618 C.3     1  UNL1        0.2579
      7 O          60.9214   88.4633   10.6524 O.3     1  UNL1       -0.3426
      8 C          60.8760   89.6606   11.5549 C.3     1  UNL1        0.1387
      9 C          59.6161   90.4667   11.6686 C.3     1  UNL1        0.0342
     10 C          62.0905   90.0519   12.3436 C.3     1  UNL1        0.1384
     11 N          63.1259   90.9478   11.7312 N.ar    1  UNL1       -0.2918
     12 C          63.2307   91.3105   10.2794 C.ar    1  UNL1        0.1798
     13 N          64.4079   92.2252   10.1140 N.ar    1  UNL1       -0.2195
     14 C          65.0308   92.4279   11.4635 C.ar    1  UNL1        0.1481
     15 C          66.2170   93.2293   11.9113 C.ar    1  UNL1        0.1480
     16 N          67.0093   94.0188   10.9118 N.pl3   1  UNL1       -0.3413
     17 N          66.6109   93.2412   13.3586 N.ar    1  UNL1       -0.2078
     18 C          65.8186   92.4517   14.3580 C.ar    1  UNL1        0.2015
     19 N          64.6323   91.6503   13.9102 N.ar    1  UNL1       -0.2048
     20 C          64.2384   91.6384   12.4629 C.ar    1  UNL1        0.1674
     21 H          66.7507   94.0110    9.9619 H       1  UNL1        0.1438
     22 H          67.7879   94.5448   11.2058 H       1  UNL1        0.1438
     23 C          62.1818   85.6304    8.6541 C.3     1  UNL1        0.1523
     24 C          62.8837   84.9586    9.7968 C.3     1  UNL1        0.0442
     25 C          63.8098   83.8078    9.5359 C.3     1  UNL1        0.0602
     26 S          64.0477   82.7799   10.6020 S.3     1  UNL1       -0.1402
     27 C          63.4857   81.3975   10.4499 C.3     1  UNL1        0.0576
     28 C          62.6473   80.8042   11.5430 C.3     1  UNL1        0.0116
     29 C          63.2736   80.4463   12.8583 C.3     1  UNL1        0.0009
     30 C          62.5123   80.6570   14.1334 C.3     1  UNL1        0.0000
     31 C          61.6176   81.8514   14.2843 C.3     1  UNL1        0.0000
     32 C          62.1833   83.1572   14.7585 C.3     1  UNL1        0.0000
     33 C          62.5479   84.2212   13.7660 C.3     1  UNL1        0.0000
     34 C          63.9903   84.5253   13.4885 C.3     1  UNL1        0.0000
     35 C          64.9166   84.8627   14.6190 C.3     1  UNL1        0.0000
     36 C          65.1600   86.2964   14.9869 C.3     1  UNL1        0.0000
     37 C          64.2943   87.3764   14.4089 C.3     1  UNL1        0.0000
     38 C          64.3236   88.7561   14.9966 C.3     1  UNL1        0.0000
     39 C          63.2685   89.1766   15.9763 C.3     1  UNL1        0.0000
     40 C          63.1037   88.4308   17.2673 C.3     1  UNL1        0.0000
     41 C          62.7629   85.8708   17.5517 C.3     1  UNL1        0.0000
     42 C          62.1925   87.2411   17.3351 C.3     1  UNL1        0.0000
@<TRIPOS>BOND
     1    41    42    1
     2    42    40    1
     3    40    39    1
     4    39    38    1
     5    38    37    1
     6    37    36    1
     7    36    35    1
     8    35    34    1
     9    34    33    1
    10    33    32    1
    11    32    31    1
    12    31    30    1
    13    30    29    1
    14    29    28    1
    15    28    27    1
    16    27    26    1
    17    26    25    1
    18    25    24    1
    19    24    23    1
    20    23     1    1
    21     1     2    1
    22     2     3    2
    23     2     4    1
    24     2     6    1
    25     6     7    1
    26     7     8    1
    27     8     9    1
    28     8    10    1
    29    10    11    1
    30    11    12   ar
    31    12    13   ar
    32    13    14   ar
    33    14    15   ar
    34    15    16    1
    35    15    17   ar
    36    17    18   ar
    37    18    19   ar
    38    19    20   ar
    39    20    11   ar
    40    20    14   ar
    41     4     5    1
    42    16    21    1
    43    16    22    1
@<TRIPOS>MOLECULE
*****
 42 43 0 0 0
SMALL
GASTEIGER

@<TRIPOS>ATOM
      1 O          59.0156   90.1069    5.4968 O.3     1  UNL1       -0.2926
      2 P          58.1414   91.2968    5.2323 P.3     1  UNL1        0.3697
      3 O          56.9729   90.5713    5.8307 O.2     1  UNL1       -0.2553
      4 O          57.2673   92.4867    4.9678 O.3     1  UNL1       -0.3218
      5 H          56.3664   92.3008    5.2756 H       1  UNL1        0.2198
      6 C          59.3100   92.0223    4.6338 C.3     1  UNL1        0.2579
      7 O          59.2570   92.4812    3.2068 O.3     1  UNL1       -0.3426
      8 C          60.3936   93.2726    2.6307 C.3     1  UNL1        0.1387
      9 C          60.2656   94.7580    2.4658 C.3     1  UNL1        0.0342
     10 C          61.6583   92.5785    2.2195 C.3     1  UNL1        0.1384
     11 N          62.7021   93.3216    1.4396 N.ar    1  UNL1       -0.2918
     12 C          63.9620   93.9157    1.9961 C.ar    1  UNL1        0.1798
     13 N          64.7078   94.5623    0.8666 N.ar    1  UNL1       -0.2195
     14 C          63.9089   94.3678   -0.3879 C.ar    1  UNL1        0.1481
     15 C          64.1500   94.7899   -1.8070 C.ar    1  UNL1        0.1480
     16 N          65.3896   95.5567   -2.1611 N.pl3   1  UNL1       -0.3413
     17 N          63.1515   94.4451   -2.8719 N.ar    1  UNL1       -0.2078
     18 C          61.9119   93.6782   -2.5178 C.ar    1  UNL1        0.2015
     19 N          61.6708   93.2562   -1.0988 N.ar    1  UNL1       -0.2048
     20 C          62.6693   93.6010   -0.0338 C.ar    1  UNL1        0.1674
     21 H          66.0449   95.7830   -1.4621 H       1  UNL1        0.1438
     22 H          65.5478   95.8337   -3.0924 H       1  UNL1        0.1438
     23 C          59.3720   89.7365    6.9059 C.3     1  UNL1        0.1523
     24 C          59.4058   88.2942    7.3166 C.3     1  UNL1        0.0442
     25 C          59.8457   87.9186    8.7005 C.3     1  UNL1        0.0602
     26 S          60.5292   88.9311    9.5709 S.3     1  UNL1       -0.1402
     27 C          61.3535   88.4806   10.7403 C.3     1  UNL1        0.0576
     28 C          61.3506   87.0372   11.1484 C.3     1  UNL1        0.0116
     29 C          62.3659   86.0936   10.5747 C.3     1  UNL1        0.0009
     30 C          62.4133   84.6688   11.0412 C.3     1  UNL1        0.0000
     31 C          63.3923   83.7113   10.4290 C.3     1  UNL1        0.0000
     32 C          64.0454   82.6612   11.2779 C.3     1  UNL1        0.0000
     33 C          63.2676   81.4523   11.7061 C.3     1  UNL1        0.0000
     34 C          63.2515   81.0432   13.1491 C.3     1  UNL1        0.0000
     35 C          62.1593   81.5300   14.0546 C.3     1  UNL1        0.0000
     36 C          62.1408   82.9604   14.5058 C.3     1  UNL1        0.0000
     37 C          63.2805   83.5068   15.3136 C.3     1  UNL1        0.0000
     38 C          64.4120   84.2158   14.6302 C.3     1  UNL1        0.0000
     39 C          64.2087   85.5959   14.0790 C.3     1  UNL1        0.0000
     40 C          64.3385   86.7894   14.9782 C.3     1  UNL1        0.0000
     41 C          63.8856   89.3321   15.2607 C.3     1  UNL1        0.0000
     42 C          64.2917   88.1727   14.4000 C.3     1  UNL1        0.0000
@<TRIPOS>BOND
     1    41    42    1
     2    42    40    1
     3    40    39    1
     4    39    38    1
     5    38    37    1
     6    37    36    1
     7    36    35    1
     8    35    34    1
     9    34    33    1
    10    33    32    1
    11    32    31    1
    12    31    30    1
    13    30    29    1
    14    29    28    1
    15    28    27    1
    16    27    26    1
    17    26    25    1
    18    25    24    1
    19    24    23    1
    20    23     1    1
    21     1     2    1
    22     2     3    2
    23     2     4    1
    24     2     6    1
    25     6     7    1
    26     7     8    1
    27     8     9    1
    28     8    10    1
    29    10    11    1
    30    11    12   ar
    31    12    13   ar
    32    13    14   ar
    33    14    15   ar
    34    15    16    1
    35    15    17   ar
    36    17    18   ar
    37    18    19   ar
    38    19    20   ar
    39    20    11   ar
    40    20    14   ar
    41     4     5    1
    42    16    21    1
    43    16    22    1
@<TRIPOS>MOLECULE
*****
 42 43 0 0 0
SMALL
GASTEIGER

@<TRIPOS>ATOM
      1 O          63.6431   81.8103   13.3845 O.3     1  UNL1       -0.2926
      2 P          63.3819   81.3168   11.9923 P.3     1  UNL1        0.3697
      3 O          62.4553   80.2705   12.5370 O.2     1  UNL1       -0.2553
      4 O          63.1207   80.8233   10.6001 O.3     1  UNL1       -0.3218
      5 H          62.4995   80.0790   10.6322 H       1  UNL1        0.2198
      6 C          64.3086   82.3630   11.4476 C.3     1  UNL1        0.2579
      7 O          64.1201   82.8785   10.0517 O.3     1  UNL1       -0.3426
      8 C          63.3444   84.1406    9.8165 C.3     1  UNL1        0.1387
      9 C          63.4455   84.8484    8.4979 C.3     1  UNL1        0.0342
     10 C          62.4677   84.6951   10.9001 C.3     1  UNL1        0.1384
     11 N          62.1006   86.1495   10.8972 N.ar    1  UNL1       -0.2918
     12 C          62.6102   87.1893   11.8506 C.ar    1  UNL1        0.1798
     13 N          61.9840   88.5018   11.4830 N.ar    1  UNL1       -0.2195
     14 C          61.0874   88.2732   10.3024 C.ar    1  UNL1        0.1481
     15 C          60.2147   89.2010    9.5103 C.ar    1  UNL1        0.1480
     16 N          60.1427   90.6549    9.8723 N.pl3   1  UNL1       -0.3413
     17 N          59.4140   88.6749    8.3561 N.ar    1  UNL1       -0.2078
     18 C          59.4861   87.2211    7.9941 C.ar    1  UNL1        0.2015
     19 N          60.3588   86.2933    8.7862 N.ar    1  UNL1       -0.2048
     20 C          61.1595   86.8193    9.9404 C.ar    1  UNL1        0.1674
     21 H          60.6682   91.0001   10.6298 H       1  UNL1        0.1438
     22 H          59.5698   91.2638    9.3524 H       1  UNL1        0.1438
     23 C          62.5159   81.9090   14.3691 C.3     1  UNL1        0.1523
     24 C          62.2389   83.2090   15.0643 C.3     1  UNL1        0.0442
     25 C          62.6503   84.5030   14.4267 C.3     1  UNL1        0.0602
     26 S          63.8190   85.2693   14.9716 S.3     1  UNL1       -0.1402
     27 C          63.9095   85.5541   16.4415 C.3     1  UNL1        0.0576
     28 C          62.6804   85.9468   17.2065 C.3     1  UNL1        0.0116
     29 C          62.1963   87.3662   17.1710 C.3     1  UNL1        0.0009
     30 C          63.1778   88.4960   17.2717 C.3     1  UNL1        0.0000
     31 C          63.1815   89.5809   16.2359 C.3     1  UNL1        0.0000
     32 C          63.6579   89.2876   14.8442 C.3     1  UNL1        0.0000
     33 C          64.4730   90.3039   14.1007 C.3     1  UNL1        0.0000
     34 C          65.1524   91.4127   14.8482 C.3     1  UNL1        0.0000
     35 C          66.6502   91.4776   14.8956 C.3     1  UNL1        0.0000
     36 C          67.3964   92.3180   13.9022 C.3     1  UNL1        0.0000
     37 C          66.6953   93.4359   13.1889 C.3     1  UNL1        0.0000
     38 C          66.1997   93.2371   11.7872 C.3     1  UNL1        0.0000
     39 C          66.2253   94.3779   10.8137 C.3     1  UNL1        0.0000
     40 C          66.7707   94.1724    9.4316 C.3     1  UNL1        0.0000
     41 C          68.5071   92.2545    9.1928 C.3     1  UNL1        0.0000
     42 C          68.1885   93.7193    9.2444 C.3     1  UNL1        0.0000
@<TRIPOS>BOND
     1    41    42    1
     2    42    40    1
     3    40    39    1
     4    39    38    1
     5    38    37    1
     6    37    36    1
     7    36    35    1
     8    35    34    1
     9    34    33    1
    10    33    32    1
    11    32    31    1
    12    31    30    1
    13    30    29    1
    14    29    28    1
    15    28    27    1
    16    27    26    1
    17    26    25    1
    18    25    24    1
    19    24    23    1
    20    23     1    1
    21     1     2    1
    22     2     3    2
    23     2     4    1
    24     2     6    1
    25     6     7    1
    26     7     8    1
    27     8     9    1
    28     8    10    1
    29    10    11    1
    30    11    12   ar
    31    12    13   ar
    32    13    14   ar
    33    14    15   ar
    34    15    16    1
    35    15    17   ar
    36    17    18   ar
    37    18    19   ar
    38    19    20   ar
    39    20    11   ar
    40    20    14   ar
    41     4     5    1
    42    16    21    1
    43    16    22    1
@<TRIPOS>MOLECULE
*****
 42 43 0 0 0
SMALL
GASTEIGER

@<TRIPOS>ATOM
      1 O          62.1206   83.6827   14.6069 O.3     1  UNL1       -0.2926
      2 P          62.8051   82.6738   13.7331 P.3     1  UNL1        0.3697
      3 O          62.2420   81.5651   14.5720 O.2     1  UNL1       -0.2553
      4 O          63.4896   81.6649   12.8592 O.3     1  UNL1       -0.3218
      5 H          63.2938   80.7715   13.1824 H       1  UNL1        0.2198
      6 C          63.3682   83.7824   12.8941 C.3     1  UNL1        0.2579
      7 O          62.5681   84.3420   11.7555 O.3     1  UNL1       -0.3426
      8 C          63.1327   84.3323   10.3659 C.3     1  UNL1        0.1387
      9 C          63.9649   83.1736    9.9025 C.3     1  UNL1        0.0342
     10 C          62.8651   85.4815    9.4395 C.3     1  UNL1        0.1384
     11 N          61.8353   86.5110    9.7996 N.ar    1  UNL1       -0.2918
     12 C          60.4692   86.6410    9.1940 C.ar    1  UNL1        0.1798
     13 N          59.7806   87.8017    9.8487 N.ar    1  UNL1       -0.2195
     14 C          60.7210   88.3889   10.8590 C.ar    1  UNL1        0.1481
     15 C          60.5851   89.5470   11.8026 C.ar    1  UNL1        0.1480
     16 N          59.3151   90.3447   11.8329 N.pl3   1  UNL1       -0.3413
     17 N          61.7190   89.9073   12.7159 N.ar    1  UNL1       -0.2078
     18 C          62.9890   89.1096   12.6856 C.ar    1  UNL1        0.2015
     19 N          63.1250   87.9516   11.7420 N.ar    1  UNL1       -0.2048
     20 C          61.9910   87.5913   10.8287 C.ar    1  UNL1        0.1674
     21 H          58.5708   90.1081   11.2334 H       1  UNL1        0.1438
     22 H          59.2259   91.1047   12.4522 H       1  UNL1        0.1438
     23 C          62.8962   84.4043   15.6688 C.3     1  UNL1        0.1523
     24 C          62.2140   85.4204   16.5360 C.3     1  UNL1        0.0442
     25 C          63.0243   86.2937   17.4474 C.3     1  UNL1        0.0602
     26 S          62.8314   87.7811   17.4280 S.3     1  UNL1       -0.1402
     27 C          63.4638   88.6054   16.3461 C.3     1  UNL1        0.0576
     28 C          63.1947   90.0792   16.2718 C.3     1  UNL1        0.0116
     29 C          64.2316   91.0033   15.7052 C.3     1  UNL1        0.0009
     30 C          64.7038   92.1812   16.5048 C.3     1  UNL1        0.0000
     31 C          65.9359   92.9269   16.0857 C.3     1  UNL1        0.0000
     32 C          67.2898   92.3152   16.2928 C.3     1  UNL1        0.0000
     33 C          68.3578   92.4882   15.2540 C.3     1  UNL1        0.0000
     34 C          68.4148   91.5621   14.0754 C.3     1  UNL1        0.0000
     35 C          67.9965   92.0474   12.7192 C.3     1  UNL1        0.0000
     36 C          66.5957   92.5356   12.4964 C.3     1  UNL1        0.0000
     37 C          66.2728   93.9906   12.6651 C.3     1  UNL1        0.0000
     38 C          66.1178   94.8692   11.4593 C.3     1  UNL1        0.0000
     39 C          66.2908   94.2938   10.0849 C.3     1  UNL1        0.0000
     40 C          67.5410   94.5760    9.3056 C.3     1  UNL1        0.0000
     41 C          68.3484   92.1228    9.0225 C.3     1  UNL1        0.0000
     42 C          68.6525   93.5689    9.2802 C.3     1  UNL1        0.0000
@<TRIPOS>BOND
     1    41    42    1
     2    42    40    1
     3    40    39    1
     4    39    38    1
     5    38    37    1
     6    37    36    1
     7    36    35    1
     8    35    34    1
     9    34    33    1
    10    33    32    1
    11    32    31    1
    12    31    30    1
    13    30    29    1
    14    29    28    1
    15    28    27    1
    16    27    26    1
    17    26    25    1
    18    25    24    1
    19    24    23    1
    20    23     1    1
    21     1     2    1
    22     2     3    2
    23     2     4    1
    24     2     6    1
    25     6     7    1
    26     7     8    1
    27     8     9    1
    28     8    10    1
    29    10    11    1
    30    11    12   ar
    31    12    13   ar
    32    13    14   ar
    33    14    15   ar
    34    15    16    1
    35    15    17   ar
    36    17    18   ar
    37    18    19   ar
    38    19    20   ar
    39    20    11   ar
    40    20    14   ar
    41     4     5    1
    42    16    21    1
    43    16    22    1
@<TRIPOS>MOLECULE
*****
 42 43 0 0 0
SMALL
GASTEIGER

@<TRIPOS>ATOM
      1 O          64.2872   83.0676   13.2510 O.3     1  UNL1       -0.2926
      2 P          62.9797   82.5983   13.8169 P.3     1  UNL1        0.3697
      3 O          63.6296   82.3999   15.1541 O.2     1  UNL1       -0.2553
      4 O          61.6722   82.1289   14.3827 O.3     1  UNL1       -0.3218
      5 H          61.7867   81.9068   15.3200 H       1  UNL1        0.2198
      6 C          62.3297   82.7966   12.4796 C.3     1  UNL1        0.2579
      7 O          62.4957   84.0969   11.7505 O.3     1  UNL1       -0.3426
      8 C          63.1903   84.1283   10.4215 C.3     1  UNL1        0.1387
      9 C          64.1782   83.0569   10.0660 C.3     1  UNL1        0.0342
     10 C          62.8971   85.2311    9.4478 C.3     1  UNL1        0.1384
     11 N          61.8582   86.2628    9.7736 N.ar    1  UNL1       -0.2918
     12 C          60.5049   86.3827    9.1378 C.ar    1  UNL1        0.1798
     13 N          59.8005   87.5497    9.7638 N.ar    1  UNL1       -0.2195
     14 C          60.7184   88.1511   10.7865 C.ar    1  UNL1        0.1481
     15 C          60.5605   89.3201   11.7129 C.ar    1  UNL1        0.1480
     16 N          59.2888   90.1155   11.7068 N.pl3   1  UNL1       -0.3413
     17 N          61.6744   89.6938   12.6454 N.ar    1  UNL1       -0.2078
     18 C          62.9461   88.8984   12.6515 C.ar    1  UNL1        0.2015
     19 N          63.1040   87.7294   11.7250 N.ar    1  UNL1       -0.2048
     20 C          61.9902   87.3557   10.7925 C.ar    1  UNL1        0.1674
     21 H          58.5577   89.8702   11.0948 H       1  UNL1        0.1438
     22 H          59.1852   90.8828   12.3149 H       1  UNL1        0.1438
     23 C          65.0049   84.2245   13.8806 C.3     1  UNL1        0.1523
     24 C          64.2375   85.4403   14.3082 C.3     1  UNL1        0.0442
     25 C          64.1373   85.7906   15.7633 C.3     1  UNL1        0.0602
     26 S          62.8242   85.6624   16.4769 S.3     1  UNL1       -0.1402
     27 C          62.5368   86.5139   17.6778 C.3     1  UNL1        0.0576
     28 C          62.9863   87.9446   17.7077 C.3     1  UNL1        0.0116
     29 C          62.8998   88.7841   16.4675 C.3     1  UNL1        0.0009
     30 C          63.4850   90.1652   16.4543 C.3     1  UNL1        0.0000
     31 C          64.2677   90.6368   15.2648 C.3     1  UNL1        0.0000
     32 C          65.2544   91.7569   15.4124 C.3     1  UNL1        0.0000
     33 C          66.3079   91.9710   14.3663 C.3     1  UNL1        0.0000
     34 C          66.2824   93.2081   13.5184 C.3     1  UNL1        0.0000
     35 C          66.0777   93.0977   12.0366 C.3     1  UNL1        0.0000
     36 C          67.1932   92.6115   11.1595 C.3     1  UNL1        0.0000
     37 C          67.2374   93.0076    9.7135 C.3     1  UNL1        0.0000
     38 C          68.0261   94.2109    9.2892 C.3     1  UNL1        0.0000
     39 C          67.4145   95.2205    8.3637 C.3     1  UNL1        0.0000
     40 C          66.6664   96.3943    8.9228 C.3     1  UNL1        0.0000
     41 C          65.9063   96.6327   11.3958 C.3     1  UNL1        0.0000
     42 C          66.9333   96.8548   10.3252 C.3     1  UNL1        0.0000
@<TRIPOS>BOND
     1    41    42    1
     2    42    40    1
     3    40    39    1
     4    39    38    1
     5    38    37    1
     6    37    36    1
     7    36    35    1
     8    35    34    1
     9    34    33    1
    10    33    32    1
    11    32    31    1
    12    31    30    1
    13    30    29    1
    14    29    28    1
    15    28    27    1
    16    27    26    1
    17    26    25    1
    18    25    24    1
    19    24    23    1
    20    23     1    1
    21     1     2    1
    22     2     3    2
    23     2     4    1
    24     2     6    1
    25     6     7    1
    26     7     8    1
    27     8     9    1
    28     8    10    1
    29    10    11    1
    30    11    12   ar
    31    12    13   ar
    32    13    14   ar
    33    14    15   ar
    34    15    16    1
    35    15    17   ar
    36    17    18   ar
    37    18    19   ar
    38    19    20   ar
    39    20    11   ar
    40    20    14   ar
    41     4     5    1
    42    16    21    1
    43    16    22    1
