@<TRIPOS>MOLECULE
*****
 31 34 0 0 0
SMALL
GASTEIGER

@<TRIPOS>ATOM
      1 C          64.9938   91.8127   12.0420 C.ar    1  UNL1       -0.0011
      2 C          64.1796   91.7201   10.7856 C.ar    1  UNL1       -0.0012
      3 C          62.9667   90.8388   10.7412 C.ar    1  UNL1        0.0143
      4 C          62.5679   90.0500   11.9531 C.ar    1  UNL1        0.0483
      5 C          63.3821   90.1426   13.2096 C.ar    1  UNL1        0.0143
      6 C          64.5950   91.0239   13.2540 C.ar    1  UNL1       -0.0012
      7 N          61.3549   89.1687   11.9086 N.pl3   1  UNL1       -0.3125
      8 H          60.7151   89.1737   12.6569 H       1  UNL1        0.1522
      9 C          61.1168   88.2796   10.7241 C.ar    1  UNL1        0.0483
     10 C          59.7857   88.2918   10.0328 C.ar    1  UNL1        0.0146
     11 C          59.5476   87.4028    8.8484 C.ar    1  UNL1        0.0013
     12 C          60.6406   86.5016    8.3552 C.ar    1  UNL1        0.0001
     13 C          60.4025   85.6127    7.1707 C.ar    1  UNL1        0.0000
     14 C          61.4955   84.7116    6.6775 C.ar    1  UNL1        0.0000
     15 C          62.8267   84.6994    7.3688 C.ar    1  UNL1        0.0000
     16 C          63.0648   85.5884    8.5533 C.ar    1  UNL1        0.0000
     17 C          61.9718   86.4895    9.0464 C.ar    1  UNL1        0.0012
     18 C          62.2099   87.3785   10.2310 C.ar    1  UNL1        0.0146
     19 C          66.2067   92.6940   12.0865 C.3     1  UNL1        0.1194
     20 N          66.9845   92.8358   13.3612 N.ar    1  UNL1       -0.3053
     21 C          68.1350   91.9754   13.7924 C.ar    1  UNL1        0.0982
     22 C          68.6099   92.4707   15.1262 C.ar    1  UNL1        0.1193
     23 N          67.7528   93.6374   15.5194 N.ar    1  UNL1       -0.2223
     24 C          66.7483   93.8630   14.4285 C.ar    1  UNL1        0.1788
     25 C          66.6419   93.4336   10.8561 C.3     1  UNL1        0.1124
     26 C          67.4667   92.2526   10.4379 C.3     1  UNL1        0.0134
     27 C          65.8172   94.6146   11.2743 C.3     1  UNL1        0.0134
     28 C          67.0771   94.1732    9.6258 C.2     1  UNL1        0.3181
     29 O          68.0037   93.5177    8.6451 O.2     1  UNL1       -0.2501
     30 C          67.3441   96.4770    8.4549 C.3     1  UNL1        0.2556
     31 O          66.5857   95.5683    9.3762 O.3     1  UNL1       -0.4444
@<TRIPOS>BOND
     1    30    31    1
     2    31    28    1
     3    28    29    2
     4    28    25    1
     5    25    26    1
     6    25    27    1
     7    25    19    1
     8    19     1    1
     9     1     2   ar
    10     2     3   ar
    11     3     4   ar
    12     4     7    1
    13     7     9    1
    14     9    10   ar
    15    10    11   ar
    16    11    12   ar
    17    12    13   ar
    18    13    14   ar
    19    14    15   ar
    20    15    16   ar
    21    16    17   ar
    22    17    18   ar
    23     4     5   ar
    24     5     6   ar
    25    19    20    1
    26    20    21   ar
    27    21    22   ar
    28    22    23   ar
    29    23    24   ar
    30     6     1   ar
    31    24    20   ar
    32    18     9   ar
    33    17    12   ar
    34     7     8    1
@<TRIPOS>MOLECULE
*****
 31 34 0 0 0
SMALL
GASTEIGER

@<TRIPOS>ATOM
      1 C          65.0878   91.7285   12.2605 C.ar    1  UNL1       -0.0011
      2 C          64.2634   91.7141   11.0074 C.ar    1  UNL1       -0.0012
      3 C          63.0293   90.8649   10.9313 C.ar    1  UNL1        0.0143
      4 C          62.6195   90.0301   12.1082 C.ar    1  UNL1        0.0483
      5 C          63.4439   90.0445   13.3614 C.ar    1  UNL1        0.0143
      6 C          64.6780   90.8937   13.4375 C.ar    1  UNL1       -0.0012
      7 N          61.3854   89.1809   12.0321 N.pl3   1  UNL1       -0.3125
      8 H          60.7336   89.1925   12.7699 H       1  UNL1        0.1522
      9 C          61.1444   88.3140   10.8319 C.ar    1  UNL1        0.0483
     10 C          59.8194   88.3565   10.1300 C.ar    1  UNL1        0.0146
     11 C          59.5783   87.4896    8.9298 C.ar    1  UNL1        0.0013
     12 C          60.6623   86.5803    8.4315 C.ar    1  UNL1        0.0001
     13 C          60.4212   85.7135    7.2313 C.ar    1  UNL1        0.0000
     14 C          61.5051   84.8042    6.7331 C.ar    1  UNL1        0.0000
     15 C          62.8301   84.7617    7.4350 C.ar    1  UNL1        0.0000
     16 C          63.0711   85.6286    8.6351 C.ar    1  UNL1        0.0000
     17 C          61.9872   86.5378    9.1334 C.ar    1  UNL1        0.0012
     18 C          62.2283   87.4047   10.3336 C.ar    1  UNL1        0.0146
     19 C          66.3219   92.5777   12.3366 C.3     1  UNL1        0.1194
     20 N          66.7898   93.3309   11.1268 N.ar    1  UNL1       -0.3053
     21 C          67.6088   92.7709   10.0018 C.ar    1  UNL1        0.0982
     22 C          67.8461   93.8702    9.0092 C.ar    1  UNL1        0.1193
     23 N          67.1738   95.1097    9.5208 N.ar    1  UNL1       -0.2223
     24 C          66.5210   94.7764   10.8295 C.ar    1  UNL1        0.1788
     25 C          67.0881   92.6737   13.6226 C.3     1  UNL1        0.1124
     26 C          68.0008   91.5767   13.1608 C.3     1  UNL1        0.0134
     27 C          66.1754   93.7708   14.0845 C.3     1  UNL1        0.0134
     28 C          67.8542   92.7698   14.9086 C.2     1  UNL1        0.3181
     29 O          67.2048   92.3698   16.2002 O.2     1  UNL1       -0.2501
     30 C          69.7437   94.1937   15.9821 C.3     1  UNL1        0.2556
     31 O          69.2699   93.2658   14.9030 O.3     1  UNL1       -0.4444
@<TRIPOS>BOND
     1    30    31    1
     2    31    28    1
     3    28    29    2
     4    28    25    1
     5    25    26    1
     6    25    27    1
     7    25    19    1
     8    19     1    1
     9     1     2   ar
    10     2     3   ar
    11     3     4   ar
    12     4     7    1
    13     7     9    1
    14     9    10   ar
    15    10    11   ar
    16    11    12   ar
    17    12    13   ar
    18    13    14   ar
    19    14    15   ar
    20    15    16   ar
    21    16    17   ar
    22    17    18   ar
    23     4     5   ar
    24     5     6   ar
    25    19    20    1
    26    20    21   ar
    27    21    22   ar
    28    22    23   ar
    29    23    24   ar
    30     6     1   ar
    31    24    20   ar
    32    18     9   ar
    33    17    12   ar
    34     7     8    1
@<TRIPOS>MOLECULE
*****
 31 34 0 0 0
SMALL
GASTEIGER

@<TRIPOS>ATOM
      1 C          65.1944   91.7773   12.1475 C.ar    1  UNL1       -0.0011
      2 C          64.3886   91.7772   10.8823 C.ar    1  UNL1       -0.0012
      3 C          63.2968   90.7670   10.6886 C.ar    1  UNL1        0.0143
      4 C          63.0107   89.7570   11.7600 C.ar    1  UNL1        0.0483
      5 C          63.8165   89.7571   13.0253 C.ar    1  UNL1        0.0143
      6 C          64.9083   90.7673   13.2190 C.ar    1  UNL1       -0.0012
      7 N          61.9189   88.7469   11.5663 N.pl3   1  UNL1       -0.3125
      8 H          60.9813   88.9976   11.7314 H       1  UNL1        0.1522
      9 C          62.2557   87.3546   11.1209 C.ar    1  UNL1        0.0483
     10 C          62.2442   87.0109    9.6608 C.ar    1  UNL1        0.0146
     11 C          62.5810   85.6187    9.2154 C.ar    1  UNL1        0.0013
     12 C          62.9291   84.5702   10.2301 C.ar    1  UNL1        0.0001
     13 C          63.2658   83.1780    9.7847 C.ar    1  UNL1        0.0000
     14 C          63.6140   82.1296   10.7993 C.ar    1  UNL1        0.0000
     15 C          63.6254   82.4733   12.2593 C.ar    1  UNL1        0.0000
     16 C          63.2887   83.8655   12.7047 C.ar    1  UNL1        0.0000
     17 C          62.9405   84.9139   11.6901 C.ar    1  UNL1        0.0012
     18 C          62.6038   86.3062   12.1355 C.ar    1  UNL1        0.0146
     19 C          66.2862   92.7874   12.3412 C.3     1  UNL1        0.1194
     20 N          66.9745   92.9026   13.6690 N.ar    1  UNL1       -0.3053
     21 C          68.2957   92.2929   14.0330 C.ar    1  UNL1        0.0982
     22 C          68.6001   92.6611   15.4549 C.ar    1  UNL1        0.1193
     23 N          67.4670   93.4985   15.9697 N.ar    1  UNL1       -0.2223
     24 C          66.4623   93.6477   14.8659 C.ar    1  UNL1        0.1788
     25 C          66.6898   93.6824   11.2071 C.3     1  UNL1        0.1124
     26 C          66.0011   94.8367   11.8729 C.3     1  UNL1        0.0134
     27 C          67.3785   92.5282   10.5414 C.3     1  UNL1        0.0134
     28 C          67.0934   94.5774   10.0730 C.2     1  UNL1        0.3181
     29 O          68.4187   94.3817    9.3983 O.2     1  UNL1       -0.2501
     30 C          66.3462   96.2737    8.2525 C.3     1  UNL1        0.2556
     31 O          66.1716   95.6680    9.6136 O.3     1  UNL1       -0.4444
@<TRIPOS>BOND
     1    30    31    1
     2    31    28    1
     3    28    29    2
     4    28    25    1
     5    25    26    1
     6    25    27    1
     7    25    19    1
     8    19     1    1
     9     1     2   ar
    10     2     3   ar
    11     3     4   ar
    12     4     7    1
    13     7     9    1
    14     9    10   ar
    15    10    11   ar
    16    11    12   ar
    17    12    13   ar
    18    13    14   ar
    19    14    15   ar
    20    15    16   ar
    21    16    17   ar
    22    17    18   ar
    23     4     5   ar
    24     5     6   ar
    25    19    20    1
    26    20    21   ar
    27    21    22   ar
    28    22    23   ar
    29    23    24   ar
    30     6     1   ar
    31    24    20   ar
    32    18     9   ar
    33    17    12   ar
    34     7     8    1
@<TRIPOS>MOLECULE
*****
 31 34 0 0 0
SMALL
GASTEIGER

@<TRIPOS>ATOM
      1 C          65.1166   91.8065   12.1452 C.ar    1  UNL1       -0.0011
      2 C          64.3398   91.8089   10.8621 C.ar    1  UNL1       -0.0012
      3 C          63.2565   90.7955   10.6394 C.ar    1  UNL1        0.0143
      4 C          62.9502   89.7798   11.6997 C.ar    1  UNL1        0.0483
      5 C          63.7271   89.7774   12.9829 C.ar    1  UNL1        0.0143
      6 C          64.8103   90.7908   13.2057 C.ar    1  UNL1       -0.0012
      7 N          61.8669   88.7664   11.4770 N.pl3   1  UNL1       -0.3125
      8 H          60.9237   89.0179   11.6046 H       1  UNL1        0.1522
      9 C          62.2208   87.3696   11.0598 C.ar    1  UNL1        0.0483
     10 C          62.2498   87.0061    9.6048 C.ar    1  UNL1        0.0146
     11 C          62.6037   85.6095    9.1876 C.ar    1  UNL1        0.0013
     12 C          62.9286   84.5762   10.2255 C.ar    1  UNL1        0.0001
     13 C          63.2825   83.1796    9.8083 C.ar    1  UNL1        0.0000
     14 C          63.6073   82.1465   10.8461 C.ar    1  UNL1        0.0000
     15 C          63.5783   82.5100   12.3011 C.ar    1  UNL1        0.0000
     16 C          63.2244   83.9067   12.7183 C.ar    1  UNL1        0.0000
     17 C          62.8996   84.9398   11.6805 C.ar    1  UNL1        0.0012
     18 C          62.5457   86.3365   12.0976 C.ar    1  UNL1        0.0146
     19 C          66.1999   92.8199   12.3680 C.3     1  UNL1        0.1194
     20 N          66.4674   93.8717   11.3325 N.ar    1  UNL1       -0.3053
     21 C          67.0732   93.6430    9.9795 C.ar    1  UNL1        0.0982
     22 C          67.1563   94.9668    9.2791 C.ar    1  UNL1        0.1193
     23 N          66.6019   96.0137   10.1992 N.ar    1  UNL1       -0.2223
     24 C          66.1761   95.3369   11.4683 C.ar    1  UNL1        0.1788
     25 C          67.0156   92.7815   13.6262 C.3     1  UNL1        0.1124
     26 C          67.9923   91.8550   12.9648 C.3     1  UNL1        0.0134
     27 C          66.0390   93.7081   14.2877 C.3     1  UNL1        0.0134
     28 C          67.8313   92.7431   14.8845 C.2     1  UNL1        0.3181
     29 O          67.2254   92.2263   16.1556 O.2     1  UNL1       -0.2501
     30 C          69.7421   94.1484   15.9448 C.3     1  UNL1        0.2556
     31 O          69.2529   93.2216   14.8716 O.3     1  UNL1       -0.4444
@<TRIPOS>BOND
     1    30    31    1
     2    31    28    1
     3    28    29    2
     4    28    25    1
     5    25    26    1
     6    25    27    1
     7    25    19    1
     8    19     1    1
     9     1     2   ar
    10     2     3   ar
    11     3     4   ar
    12     4     7    1
    13     7     9    1
    14     9    10   ar
    15    10    11   ar
    16    11    12   ar
    17    12    13   ar
    18    13    14   ar
    19    14    15   ar
    20    15    16   ar
    21    16    17   ar
    22    17    18   ar
    23     4     5   ar
    24     5     6   ar
    25    19    20    1
    26    20    21   ar
    27    21    22   ar
    28    22    23   ar
    29    23    24   ar
    30     6     1   ar
    31    24    20   ar
    32    18     9   ar
    33    17    12   ar
    34     7     8    1
