@<TRIPOS>MOLECULE
*****
 33 37 0 0 0
SMALL
GASTEIGER

@<TRIPOS>ATOM
      1 N          62.5197   87.2742   11.7868 N.3     1  UNL1       -0.2679
      2 C          62.8293   88.7149   11.5068 C.3     1  UNL1        0.0978
      3 C          62.4192   89.3303   10.2018 C.3     1  UNL1        0.0224
      4 C          62.7288   90.7710    9.9218 C.3     1  UNL1        0.0065
      5 C          63.4485   91.5964   10.9469 C.3     1  UNL1        0.0277
      6 C          63.8586   90.9810   12.2519 C.ar    1  UNL1       -0.0073
      7 C          64.5783   91.8064   13.2770 C.ar    1  UNL1       -0.0015
      8 C          64.9884   91.1910   14.5820 C.ar    1  UNL1        0.0203
      9 C          64.6788   89.7503   14.8620 C.ar    1  UNL1        0.0985
     10 N          63.9591   88.9249   13.8369 N.ar    1  UNL1       -0.2471
     11 C          63.5490   89.5403   12.5318 C.ar    1  UNL1        0.0695
     12 C          61.3486   86.6154   11.1200 C.3     1  UNL1        0.0724
     13 N          61.8895   84.4665    5.5442 N.3     1  UNL1       -0.3222
     14 C          61.7543   85.0037    6.9381 C.3     1  UNL1        0.0508
     15 C          60.4779   85.6650    7.3665 C.3     1  UNL1        0.0155
     16 C          60.3427   86.2023    8.7604 C.3     1  UNL1        0.0027
     17 C          61.4838   86.0782    9.7260 C.3     1  UNL1        0.0161
     18 C          62.7603   85.4169    9.2977 C.3     1  UNL1        0.0027
     19 C          62.8955   84.8796    7.9037 C.3     1  UNL1        0.0155
     20 H          61.0253   84.6355    5.0293 H       1  UNL1        0.1188
     21 H          62.0720   83.4637    5.5825 H       1  UNL1        0.1188
     22 C          63.3811   86.4922   12.7335 C.3     1  UNL1        0.0886
     23 C          63.0066   85.0872   13.1021 C.3     1  UNL1        0.0748
     24 C          63.2425   83.9687   12.1308 C.3     1  UNL1        0.0432
     25 C          62.8680   82.5637   12.4994 C.ar    1  UNL1       -0.0234
     26 C          63.1039   81.4453   11.5281 C.ar    1  UNL1       -0.0045
     27 C          62.7294   80.0404   11.8967 C.ar    1  UNL1       -0.0003
     28 C          62.1189   79.7539   13.2366 C.ar    1  UNL1       -0.0003
     29 C          61.8830   80.8723   14.2078 C.ar    1  UNL1       -0.0032
     30 C          62.2575   82.2772   13.8392 C.ar    1  UNL1       -0.0103
     31 C          62.0216   83.3957   14.8106 C.3     1  UNL1        0.0953
     32 N          62.3961   84.8007   14.4420 N.3     1  UNL1       -0.2934
     33 H          63.0630   85.1215   15.1440 H       1  UNL1        0.1236
@<TRIPOS>BOND
     1    14    13    1
     2    14    15    1
     3    15    16    1
     4    16    17    1
     5    17    12    1
     6    12     1    1
     7     1    22    1
     8    23    22    1
     9    23    24    1
    10    24    25    1
    11    25    26   ar
    12    26    27   ar
    13    27    28   ar
    14    28    29   ar
    15    29    30   ar
    16    30    31    1
    17    31    32    1
    18     2     1    1
    19     2     3    1
    20     3     4    1
    21     4     5    1
    22     5     6    1
    23     6     7   ar
    24     7     8   ar
    25     8     9   ar
    26     9    10   ar
    27    10    11   ar
    28    17    18    1
    29    18    19    1
    30    19    14    1
    31    32    23    1
    32    11     2    1
    33    30    25   ar
    34    11     6   ar
    35    13    20    1
    36    13    21    1
    37    32    33    1
@<TRIPOS>MOLECULE
*****
 33 37 0 0 0
SMALL
GASTEIGER

@<TRIPOS>ATOM
      1 N          63.8984   90.2576   13.0182 N.3     1  UNL1       -0.2679
      2 C          64.6812   91.4720   12.6150 C.3     1  UNL1        0.0978
      3 C          64.5849   91.9947   11.2124 C.3     1  UNL1        0.0224
      4 C          65.3676   93.2091   10.8092 C.3     1  UNL1        0.0065
      5 C          66.2467   93.9007   11.8086 C.3     1  UNL1        0.0277
      6 C          66.3430   93.3780   13.2112 C.ar    1  UNL1       -0.0073
      7 C          67.2221   94.0696   14.2107 C.ar    1  UNL1       -0.0015
      8 C          67.3184   93.5468   15.6134 C.ar    1  UNL1        0.0203
      9 C          66.5356   92.3325   16.0166 C.ar    1  UNL1        0.0985
     10 N          65.6566   91.6408   15.0172 N.ar    1  UNL1       -0.2471
     11 C          65.5602   92.1636   13.6144 C.ar    1  UNL1        0.0695
     12 C          64.6079   89.0581   13.5730 C.3     1  UNL1        0.0724
     13 N          62.4839   86.3141   18.4679 N.3     1  UNL1       -0.3222
     14 C          63.0149   87.0001   17.2441 C.3     1  UNL1        0.0508
     15 C          63.6328   86.1935   16.1408 C.3     1  UNL1        0.0155
     16 C          64.1638   86.8795   14.9170 C.3     1  UNL1        0.0027
     17 C          64.0769   88.3721   14.7967 C.3     1  UNL1        0.0161
     18 C          63.4590   89.1788   15.9002 C.3     1  UNL1        0.0027
     19 C          62.9280   88.4928   17.1239 C.3     1  UNL1        0.0155
     20 H          62.6245   85.3076   18.3813 H       1  UNL1        0.1188
     21 H          61.4877   86.5114   18.5629 H       1  UNL1        0.1188
     22 C          62.4062   90.2427   12.8667 C.3     1  UNL1        0.0886
     23 C          61.7795   89.5728   11.6798 C.3     1  UNL1        0.0748
     24 C          62.3419   88.2815   11.1638 C.3     1  UNL1        0.0432
     25 C          61.7152   87.6116    9.9769 C.ar    1  UNL1       -0.0234
     26 C          62.2776   86.3204    9.4609 C.ar    1  UNL1       -0.0045
     27 C          61.6509   85.6505    8.2741 C.ar    1  UNL1       -0.0003
     28 C          60.4618   86.2720    7.6034 C.ar    1  UNL1       -0.0003
     29 C          59.8994   87.5632    8.1194 C.ar    1  UNL1       -0.0032
     30 C          60.5261   88.2331    9.3062 C.ar    1  UNL1       -0.0103
     31 C          59.9637   89.5244    9.8223 C.3     1  UNL1        0.0953
     32 N          60.5904   90.1942   11.0091 N.3     1  UNL1       -0.2934
     33 H          59.8624   90.2777   11.7186 H       1  UNL1        0.1236
@<TRIPOS>BOND
     1    14    13    1
     2    14    15    1
     3    15    16    1
     4    16    17    1
     5    17    12    1
     6    12     1    1
     7     1    22    1
     8    23    22    1
     9    23    24    1
    10    24    25    1
    11    25    26   ar
    12    26    27   ar
    13    27    28   ar
    14    28    29   ar
    15    29    30   ar
    16    30    31    1
    17    31    32    1
    18     2     1    1
    19     2     3    1
    20     3     4    1
    21     4     5    1
    22     5     6    1
    23     6     7   ar
    24     7     8   ar
    25     8     9   ar
    26     9    10   ar
    27    10    11   ar
    28    17    18    1
    29    18    19    1
    30    19    14    1
    31    32    23    1
    32    11     2    1
    33    30    25   ar
    34    11     6   ar
    35    13    20    1
    36    13    21    1
    37    32    33    1
@<TRIPOS>MOLECULE
*****
 33 37 0 0 0
SMALL
GASTEIGER

@<TRIPOS>ATOM
      1 N          61.7649   87.2903   11.5501 N.3     1  UNL1       -0.2679
      2 C          62.3901   86.1098   10.8678 C.3     1  UNL1        0.0978
      3 C          62.6418   86.1446    9.3895 C.3     1  UNL1        0.0224
      4 C          63.2670   84.9641    8.7072 C.3     1  UNL1        0.0065
      5 C          63.6406   83.7489    9.5031 C.3     1  UNL1        0.0277
      6 C          63.3889   83.7141   10.9814 C.ar    1  UNL1       -0.0073
      7 C          63.7625   82.4988   11.7775 C.ar    1  UNL1       -0.0015
      8 C          63.5108   82.4640   13.2558 C.ar    1  UNL1        0.0203
      9 C          62.8856   83.6445   13.9381 C.ar    1  UNL1        0.0985
     10 N          62.5120   84.8597   13.1421 N.ar    1  UNL1       -0.2471
     11 C          62.7637   84.8946   11.6638 C.ar    1  UNL1        0.0695
     12 C          60.3507   87.6772   11.2337 C.3     1  UNL1        0.0724
     13 N          58.9103   89.5255    5.7102 N.3     1  UNL1       -0.3222
     14 C          59.2704   89.0634    7.0911 C.3     1  UNL1        0.0508
     15 C          59.0117   87.6431    7.4979 C.3     1  UNL1        0.0155
     16 C          59.3718   87.1810    8.8788 C.3     1  UNL1        0.0027
     17 C          59.9906   88.1392    9.8528 C.3     1  UNL1        0.0161
     18 C          60.2493   89.5597    9.4460 C.3     1  UNL1        0.0027
     19 C          59.8892   90.0218    8.0651 C.3     1  UNL1        0.0155
     20 H          58.5039   88.7498    5.1873 H       1  UNL1        0.1188
     21 H          59.7490   89.8552    5.2325 H       1  UNL1        0.1188
     22 C          62.5539   88.0839   12.5489 C.3     1  UNL1        0.0886
     23 C          63.2136   89.3660   12.1354 C.3     1  UNL1        0.0748
     24 C          64.1133   90.0894   13.0931 C.3     1  UNL1        0.0432
     25 C          64.7731   91.3716   12.6796 C.ar    1  UNL1       -0.0234
     26 C          65.6728   92.0949   13.6373 C.ar    1  UNL1       -0.0045
     27 C          66.3324   93.3770   13.2237 C.ar    1  UNL1       -0.0003
     28 C          66.0924   93.9358   11.8525 C.ar    1  UNL1       -0.0003
     29 C          65.1926   93.2124   10.8949 C.ar    1  UNL1       -0.0032
     30 C          64.5330   91.9303   11.3084 C.ar    1  UNL1       -0.0103
     31 C          63.6332   91.2068   10.3507 C.3     1  UNL1        0.0953
     32 N          62.9736   89.9247   10.7642 N.3     1  UNL1       -0.2934
     33 H          63.2730   89.2117   10.0992 H       1  UNL1        0.1236
@<TRIPOS>BOND
     1    14    13    1
     2    14    15    1
     3    15    16    1
     4    16    17    1
     5    17    12    1
     6    12     1    1
     7     1    22    1
     8    23    22    1
     9    23    24    1
    10    24    25    1
    11    25    26   ar
    12    26    27   ar
    13    27    28   ar
    14    28    29   ar
    15    29    30   ar
    16    30    31    1
    17    31    32    1
    18     2     1    1
    19     2     3    1
    20     3     4    1
    21     4     5    1
    22     5     6    1
    23     6     7   ar
    24     7     8   ar
    25     8     9   ar
    26     9    10   ar
    27    10    11   ar
    28    17    18    1
    29    18    19    1
    30    19    14    1
    31    32    23    1
    32    11     2    1
    33    30    25   ar
    34    11     6   ar
    35    13    20    1
    36    13    21    1
    37    32    33    1
@<TRIPOS>MOLECULE
*****
 33 37 0 0 0
SMALL
GASTEIGER

@<TRIPOS>ATOM
      1 N          63.7041   89.8069   13.5066 N.3     1  UNL1       -0.2679
      2 C          64.3858   90.9748   12.8574 C.3     1  UNL1        0.0978
      3 C          64.1350   91.2801   11.4104 C.3     1  UNL1        0.0224
      4 C          64.8167   92.4480   10.7613 C.3     1  UNL1        0.0065
      5 C          65.7491   93.3105   11.5591 C.3     1  UNL1        0.0277
      6 C          65.9999   93.0052   13.0061 C.ar    1  UNL1       -0.0073
      7 C          66.9324   93.8677   13.8040 C.ar    1  UNL1       -0.0015
      8 C          67.1831   93.5624   15.2510 C.ar    1  UNL1        0.0203
      9 C          66.5015   92.3945   15.9001 C.ar    1  UNL1        0.0985
     10 N          65.5690   91.5320   15.1023 N.ar    1  UNL1       -0.2471
     11 C          65.3182   91.8373   13.6552 C.ar    1  UNL1        0.0695
     12 C          62.2264   89.6123   13.3379 C.3     1  UNL1        0.0724
     13 N          59.9136   88.7981    7.8618 N.3     1  UNL1       -0.3222
     14 C          60.4918   89.0017    9.2308 C.3     1  UNL1        0.0508
     15 C          61.6167   88.1312    9.7069 C.3     1  UNL1        0.0155
     16 C          62.1950   88.3347   11.0759 C.3     1  UNL1        0.0027
     17 C          61.6482   89.4088   11.9689 C.3     1  UNL1        0.0161
     18 C          60.5232   90.2794   11.4928 C.3     1  UNL1        0.0027
     19 C          59.9450   90.0758   10.1238 C.3     1  UNL1        0.0155
     20 H          60.4013   88.0322    7.3972 H       1  UNL1        0.1188
     21 H          60.0239   89.6525    7.3156 H       1  UNL1        0.1188
     22 C          64.5002   88.8336   14.3245 C.3     1  UNL1        0.0886
     23 C          64.0219   87.4209   14.4843 C.3     1  UNL1        0.0748
     24 C          63.8492   86.5465   13.2779 C.3     1  UNL1        0.0432
     25 C          63.3709   85.1338   13.4377 C.ar    1  UNL1       -0.0234
     26 C          63.1982   84.2594   12.2312 C.ar    1  UNL1       -0.0045
     27 C          62.7200   82.8467   12.3911 C.ar    1  UNL1       -0.0003
     28 C          62.4145   82.3084   13.7574 C.ar    1  UNL1       -0.0003
     29 C          62.5872   83.1828   14.9639 C.ar    1  UNL1       -0.0032
     30 C          63.0654   84.5954   14.8040 C.ar    1  UNL1       -0.0103
     31 C          63.2382   85.4699   16.0105 C.3     1  UNL1        0.0953
     32 N          63.7164   86.8825   15.8507 N.3     1  UNL1       -0.2934
     33 H          64.5724   86.9674   16.3988 H       1  UNL1        0.1236
@<TRIPOS>BOND
     1    14    13    1
     2    14    15    1
     3    15    16    1
     4    16    17    1
     5    17    12    1
     6    12     1    1
     7     1    22    1
     8    23    22    1
     9    23    24    1
    10    24    25    1
    11    25    26   ar
    12    26    27   ar
    13    27    28   ar
    14    28    29   ar
    15    29    30   ar
    16    30    31    1
    17    31    32    1
    18     2     1    1
    19     2     3    1
    20     3     4    1
    21     4     5    1
    22     5     6    1
    23     6     7   ar
    24     7     8   ar
    25     8     9   ar
    26     9    10   ar
    27    10    11   ar
    28    17    18    1
    29    18    19    1
    30    19    14    1
    31    32    23    1
    32    11     2    1
    33    30    25   ar
    34    11     6   ar
    35    13    20    1
    36    13    21    1
    37    32    33    1
@<TRIPOS>MOLECULE
*****
 33 37 0 0 0
SMALL
GASTEIGER

@<TRIPOS>ATOM
      1 N          63.0706   85.4051   12.9103 N.3     1  UNL1       -0.2679
      2 C          63.3094   84.1794   12.0792 C.3     1  UNL1        0.0978
      3 C          63.9756   84.2990   10.7406 C.3     1  UNL1        0.0224
      4 C          64.2145   83.0733    9.9096 C.3     1  UNL1        0.0065
      5 C          63.7871   81.7281   10.4171 C.3     1  UNL1        0.0277
      6 C          63.1209   81.6085   11.7557 C.ar    1  UNL1       -0.0073
      7 C          62.6934   80.2632   12.2633 C.ar    1  UNL1       -0.0015
      8 C          62.0272   80.1436   13.6018 C.ar    1  UNL1        0.0203
      9 C          61.7884   81.3693   14.4329 C.ar    1  UNL1        0.0985
     10 N          62.2158   82.7146   13.9254 N.ar    1  UNL1       -0.2471
     11 C          62.8820   82.8342   12.5867 C.ar    1  UNL1        0.0695
     12 C          64.1784   85.9702   13.7489 C.3     1  UNL1        0.0724
     13 N          63.3571   91.1073   16.7381 N.3     1  UNL1       -0.3222
     14 C          63.5624   89.8230   15.9908 C.3     1  UNL1        0.0508
     15 C          63.3220   88.5103   16.6755 C.3     1  UNL1        0.0155
     16 C          63.5273   87.2260   15.9281 C.3     1  UNL1        0.0027
     17 C          63.9731   87.2545   14.4962 C.3     1  UNL1        0.0161
     18 C          64.2135   88.5673   13.8115 C.3     1  UNL1        0.0027
     19 C          64.0082   89.8516   14.5588 C.3     1  UNL1        0.0155
     20 H          63.0565   90.9019   17.6910 H       1  UNL1        0.1188
     21 H          62.6424   91.6634   16.2686 H       1  UNL1        0.1188
     22 C          61.7239   86.0657   12.9027 C.3     1  UNL1        0.0886
     23 C          61.3123   86.9162   11.7376 C.3     1  UNL1        0.0748
     24 C          60.7438   86.2763   10.5058 C.3     1  UNL1        0.0432
     25 C          60.3321   87.1268    9.3407 C.ar    1  UNL1       -0.0234
     26 C          59.7636   86.4870    8.1089 C.ar    1  UNL1       -0.0045
     27 C          59.3520   87.3374    6.9439 C.ar    1  UNL1       -0.0003
     28 C          59.5089   88.8277    7.0107 C.ar    1  UNL1       -0.0003
     29 C          60.0774   89.4675    8.2425 C.ar    1  UNL1       -0.0032
     30 C          60.4890   88.6171    9.4075 C.ar    1  UNL1       -0.0103
     31 C          61.0575   89.2569   10.6394 C.3     1  UNL1        0.0953
     32 N          61.4691   88.4065   11.8044 N.3     1  UNL1       -0.2934
     33 H          60.9260   88.7240   12.6072 H       1  UNL1        0.1236
@<TRIPOS>BOND
     1    14    13    1
     2    14    15    1
     3    15    16    1
     4    16    17    1
     5    17    12    1
     6    12     1    1
     7     1    22    1
     8    23    22    1
     9    23    24    1
    10    24    25    1
    11    25    26   ar
    12    26    27   ar
    13    27    28   ar
    14    28    29   ar
    15    29    30   ar
    16    30    31    1
    17    31    32    1
    18     2     1    1
    19     2     3    1
    20     3     4    1
    21     4     5    1
    22     5     6    1
    23     6     7   ar
    24     7     8   ar
    25     8     9   ar
    26     9    10   ar
    27    10    11   ar
    28    17    18    1
    29    18    19    1
    30    19    14    1
    31    32    23    1
    32    11     2    1
    33    30    25   ar
    34    11     6   ar
    35    13    20    1
    36    13    21    1
    37    32    33    1
@<TRIPOS>MOLECULE
*****
 33 37 0 0 0
SMALL
GASTEIGER

@<TRIPOS>ATOM
      1 N          62.0037   87.4957   11.1830 N.3     1  UNL1       -0.2679
      2 C          61.0845   87.2195   10.0302 C.3     1  UNL1        0.0978
      3 C          59.7167   87.8342    9.9977 C.3     1  UNL1        0.0224
      4 C          58.7975   87.5579    8.8450 C.3     1  UNL1        0.0065
      5 C          59.2462   86.6670    7.7248 C.3     1  UNL1        0.0277
      6 C          60.6140   86.0523    7.7573 C.ar    1  UNL1       -0.0073
      7 C          61.0627   85.1612    6.6371 C.ar    1  UNL1       -0.0015
      8 C          62.4305   84.5465    6.6696 C.ar    1  UNL1        0.0203
      9 C          63.3497   84.8228    7.8224 C.ar    1  UNL1        0.0985
     10 N          62.9011   85.7137    8.9426 N.ar    1  UNL1       -0.2471
     11 C          61.5332   86.3285    8.9100 C.ar    1  UNL1        0.0695
     12 C          61.7965   88.7148   12.0320 C.3     1  UNL1        0.0724
     13 N          65.8560   93.1327   11.9796 N.3     1  UNL1       -0.3222
     14 C          64.8412   92.0282   11.9927 C.3     1  UNL1        0.0508
     15 C          64.0543   91.7179   10.7539 C.3     1  UNL1        0.0155
     16 C          63.0394   90.6134   10.7670 C.3     1  UNL1        0.0027
     17 C          62.8114   89.8192   12.0189 C.3     1  UNL1        0.0161
     18 C          63.5983   90.1295   13.2577 C.3     1  UNL1        0.0027
     19 C          64.6131   91.2340   13.2446 C.3     1  UNL1        0.0155
     20 H          65.8792   93.5621   11.0547 H       1  UNL1        0.1188
     21 H          66.7760   92.7517   12.2007 H       1  UNL1        0.1188
     22 C          63.1301   86.5529   11.4866 C.3     1  UNL1        0.0886
     23 C          62.8581   85.2681   12.2114 C.3     1  UNL1        0.0748
     24 C          63.0093   83.9576   11.4974 C.3     1  UNL1        0.0432
     25 C          62.7372   82.6728   12.2222 C.ar    1  UNL1       -0.0234
     26 C          62.8884   81.3624   11.5082 C.ar    1  UNL1       -0.0045
     27 C          62.6164   80.0776   12.2330 C.ar    1  UNL1       -0.0003
     28 C          62.1931   80.1033   13.6718 C.ar    1  UNL1       -0.0003
     29 C          62.0419   81.4138   14.3858 C.ar    1  UNL1       -0.0032
     30 C          62.3140   82.6985   13.6610 C.ar    1  UNL1       -0.0103
     31 C          62.1628   84.0090   14.3751 C.3     1  UNL1        0.0953
     32 N          62.4348   85.2938   13.6503 N.3     1  UNL1       -0.2934
     33 H          63.1735   85.7721   14.1660 H       1  UNL1        0.1236
@<TRIPOS>BOND
     1    14    13    1
     2    14    15    1
     3    15    16    1
     4    16    17    1
     5    17    12    1
     6    12     1    1
     7     1    22    1
     8    23    22    1
     9    23    24    1
    10    24    25    1
    11    25    26   ar
    12    26    27   ar
    13    27    28   ar
    14    28    29   ar
    15    29    30   ar
    16    30    31    1
    17    31    32    1
    18     2     1    1
    19     2     3    1
    20     3     4    1
    21     4     5    1
    22     5     6    1
    23     6     7   ar
    24     7     8   ar
    25     8     9   ar
    26     9    10   ar
    27    10    11   ar
    28    17    18    1
    29    18    19    1
    30    19    14    1
    31    32    23    1
    32    11     2    1
    33    30    25   ar
    34    11     6   ar
    35    13    20    1
    36    13    21    1
    37    32    33    1
@<TRIPOS>MOLECULE
*****
 33 37 0 0 0
SMALL
GASTEIGER

@<TRIPOS>ATOM
      1 N          63.6991   88.2725   13.6023 N.3     1  UNL1       -0.2679
      2 C          63.1581   88.8073   12.3095 C.3     1  UNL1        0.0978
      3 C          63.3686   90.2475   11.9470 C.3     1  UNL1        0.0224
      4 C          62.8276   90.7823   10.6542 C.3     1  UNL1        0.0065
      5 C          62.0762   89.8769    9.7239 C.3     1  UNL1        0.0277
      6 C          61.8658   88.4367   10.0863 C.ar    1  UNL1       -0.0073
      7 C          61.1143   87.5312    9.1560 C.ar    1  UNL1       -0.0015
      8 C          60.9039   86.0910    9.5184 C.ar    1  UNL1        0.0203
      9 C          61.4448   85.5562   10.8112 C.ar    1  UNL1        0.0985
     10 N          62.1962   86.4616   11.7416 N.ar    1  UNL1       -0.2471
     11 C          62.4067   87.9019   11.3791 C.ar    1  UNL1        0.0695
     12 C          63.4553   89.0159   14.8820 C.3     1  UNL1        0.0724
     13 N          66.9516   93.6605   16.3664 N.3     1  UNL1       -0.3222
     14 C          66.0775   92.4993   15.9953 C.3     1  UNL1        0.0508
     15 C          64.7929   92.2619   16.7324 C.3     1  UNL1        0.0155
     16 C          63.9188   91.1008   16.3613 C.3     1  UNL1        0.0027
     17 C          64.3294   90.1770   15.2531 C.3     1  UNL1        0.0161
     18 C          65.6140   90.4144   14.5160 C.3     1  UNL1        0.0027
     19 C          66.4881   91.5756   14.8870 C.3     1  UNL1        0.0155
     20 H          66.5223   94.1777   17.1336 H       1  UNL1        0.1188
     21 H          67.0600   94.2758   15.5601 H       1  UNL1        0.1188
     22 C          64.4839   86.9942   13.6153 C.3     1  UNL1        0.0886
     23 C          63.7842   85.6869   13.8420 C.3     1  UNL1        0.0748
     24 C          64.0265   84.5354   12.9118 C.3     1  UNL1        0.0432
     25 C          63.3268   83.2280   13.1384 C.ar    1  UNL1       -0.0234
     26 C          63.5691   82.0766   12.2082 C.ar    1  UNL1       -0.0045
     27 C          62.8695   80.7693   12.4349 C.ar    1  UNL1       -0.0003
     28 C          61.9276   80.6134   13.5919 C.ar    1  UNL1       -0.0003
     29 C          61.6853   81.7649   14.5221 C.ar    1  UNL1       -0.0032
     30 C          62.3850   83.0722   14.2954 C.ar    1  UNL1       -0.0103
     31 C          62.1427   84.2237   15.2257 C.3     1  UNL1        0.0953
     32 N          62.8423   85.5310   14.9990 N.3     1  UNL1       -0.2934
     33 H          63.3786   85.7284   15.8439 H       1  UNL1        0.1236
@<TRIPOS>BOND
     1    14    13    1
     2    14    15    1
     3    15    16    1
     4    16    17    1
     5    17    12    1
     6    12     1    1
     7     1    22    1
     8    23    22    1
     9    23    24    1
    10    24    25    1
    11    25    26   ar
    12    26    27   ar
    13    27    28   ar
    14    28    29   ar
    15    29    30   ar
    16    30    31    1
    17    31    32    1
    18     2     1    1
    19     2     3    1
    20     3     4    1
    21     4     5    1
    22     5     6    1
    23     6     7   ar
    24     7     8   ar
    25     8     9   ar
    26     9    10   ar
    27    10    11   ar
    28    17    18    1
    29    18    19    1
    30    19    14    1
    31    32    23    1
    32    11     2    1
    33    30    25   ar
    34    11     6   ar
    35    13    20    1
    36    13    21    1
    37    32    33    1
@<TRIPOS>MOLECULE
*****
 33 37 0 0 0
SMALL
GASTEIGER

@<TRIPOS>ATOM
      1 N          61.9972   87.2211   11.1951 N.3     1  UNL1       -0.2679
      2 C          61.0885   87.0294   10.0172 C.3     1  UNL1        0.0978
      3 C          59.7403   87.6866    9.9954 C.3     1  UNL1        0.0224
      4 C          58.8315   87.4948    8.8175 C.3     1  UNL1        0.0065
      5 C          59.2709   86.6460    7.6615 C.3     1  UNL1        0.0277
      6 C          60.6191   85.9889    7.6834 C.ar    1  UNL1       -0.0073
      7 C          61.0586   85.1400    6.5274 C.ar    1  UNL1       -0.0015
      8 C          62.4068   84.4829    6.5493 C.ar    1  UNL1        0.0203
      9 C          63.3155   84.6746    7.7271 C.ar    1  UNL1        0.0985
     10 N          62.8761   85.5234    8.8831 N.ar    1  UNL1       -0.2471
     11 C          61.5279   86.1806    8.8613 C.ar    1  UNL1        0.0695
     12 C          63.1084   86.2467   11.4515 C.3     1  UNL1        0.0724
     13 N          62.0852   81.3227   14.7237 N.3     1  UNL1       -0.3222
     14 C          62.3410   82.5537   13.9056 C.3     1  UNL1        0.0508
     15 C          62.4997   83.8835   14.5812 C.3     1  UNL1        0.0155
     16 C          62.7555   85.1145   13.7631 C.3     1  UNL1        0.0027
     17 C          62.8526   85.0157   12.2696 C.3     1  UNL1        0.0161
     18 C          62.6939   83.6858   11.5940 C.3     1  UNL1        0.0027
     19 C          62.4381   82.4548   12.4120 C.3     1  UNL1        0.0155
     20 H          62.0500   81.5725   15.7120 H       1  UNL1        0.1188
     21 H          62.8362   80.6499   14.5696 H       1  UNL1        0.1188
     22 C          61.7948   88.3872   12.1166 C.3     1  UNL1        0.0886
     23 C          62.7666   89.5299   12.1049 C.3     1  UNL1        0.0748
     24 C          63.5928   89.8242   13.3218 C.3     1  UNL1        0.0432
     25 C          64.5646   90.9669   13.3101 C.ar    1  UNL1       -0.0234
     26 C          65.3907   91.2612   14.5270 C.ar    1  UNL1       -0.0045
     27 C          66.3625   92.4038   14.5153 C.ar    1  UNL1       -0.0003
     28 C          66.5080   93.2521   13.2868 C.ar    1  UNL1       -0.0003
     29 C          65.6818   92.9577   12.0699 C.ar    1  UNL1       -0.0032
     30 C          64.7101   91.8151   12.0816 C.ar    1  UNL1       -0.0103
     31 C          63.8839   91.5207   10.8647 C.3     1  UNL1        0.0953
     32 N          62.9122   90.3781   10.8764 N.3     1  UNL1       -0.2934
     33 H          63.1835   89.7530   10.1175 H       1  UNL1        0.1236
@<TRIPOS>BOND
     1    14    13    1
     2    14    15    1
     3    15    16    1
     4    16    17    1
     5    17    12    1
     6    12     1    1
     7     1    22    1
     8    23    22    1
     9    23    24    1
    10    24    25    1
    11    25    26   ar
    12    26    27   ar
    13    27    28   ar
    14    28    29   ar
    15    29    30   ar
    16    30    31    1
    17    31    32    1
    18     2     1    1
    19     2     3    1
    20     3     4    1
    21     4     5    1
    22     5     6    1
    23     6     7   ar
    24     7     8   ar
    25     8     9   ar
    26     9    10   ar
    27    10    11   ar
    28    17    18    1
    29    18    19    1
    30    19    14    1
    31    32    23    1
    32    11     2    1
    33    30    25   ar
    34    11     6   ar
    35    13    20    1
    36    13    21    1
    37    32    33    1
@<TRIPOS>MOLECULE
*****
 33 37 0 0 0
SMALL
GASTEIGER

@<TRIPOS>ATOM
      1 N          62.5889   86.3129   11.4212 N.3     1  UNL1       -0.2679
      2 C          62.3300   85.9101    9.9997 C.3     1  UNL1        0.0978
      3 C          63.2442   84.9359    9.3178 C.3     1  UNL1        0.0224
      4 C          62.9853   84.5331    7.8963 C.3     1  UNL1        0.0065
      5 C          61.8121   85.1046    7.1567 C.3     1  UNL1        0.0277
      6 C          60.8979   86.0788    7.8385 C.ar    1  UNL1       -0.0073
      7 C          59.7247   86.6503    7.0989 C.ar    1  UNL1       -0.0015
      8 C          58.8105   87.6246    7.7808 C.ar    1  UNL1        0.0203
      9 C          59.0694   88.0274    9.2023 C.ar    1  UNL1        0.0985
     10 N          60.2426   87.4559    9.9419 N.ar    1  UNL1       -0.2471
     11 C          61.1569   86.4816    9.2601 C.ar    1  UNL1        0.0695
     12 C          63.4515   85.4550   12.2986 C.3     1  UNL1        0.0724
     13 N          61.6497   79.9319   13.7982 N.3     1  UNL1       -0.3222
     14 C          62.1001   81.3126   13.4233 C.3     1  UNL1        0.0508
     15 C          62.0083   82.4284   14.4215 C.3     1  UNL1        0.0155
     16 C          62.4588   83.8092   14.0467 C.3     1  UNL1        0.0027
     17 C          63.0011   84.0742   12.6735 C.3     1  UNL1        0.0161
     18 C          63.0929   82.9584   11.6751 C.3     1  UNL1        0.0027
     19 C          62.6424   81.5776   12.0500 C.3     1  UNL1        0.0155
     20 H          61.3128   79.9338   14.7609 H       1  UNL1        0.1188
     21 H          62.4329   79.2840   13.7133 H       1  UNL1        0.1188
     22 C          61.9853   87.5736   11.9654 C.3     1  UNL1        0.0886
     23 C          62.7751   88.8489   11.9543 C.3     1  UNL1        0.0748
     24 C          63.6549   89.1964   13.1184 C.3     1  UNL1        0.0432
     25 C          64.4446   90.4716   13.1073 C.ar    1  UNL1       -0.0234
     26 C          65.3244   90.8191   14.2714 C.ar    1  UNL1       -0.0045
     27 C          66.1141   92.0943   14.2603 C.ar    1  UNL1       -0.0003
     28 C          66.0240   93.0221   13.0851 C.ar    1  UNL1       -0.0003
     29 C          65.1442   92.6746   11.9210 C.ar    1  UNL1       -0.0032
     30 C          64.3545   91.3994   11.9321 C.ar    1  UNL1       -0.0103
     31 C          63.4746   91.0519   10.7680 C.3     1  UNL1        0.0953
     32 N          62.6849   89.7767   10.7791 N.3     1  UNL1       -0.2934
     33 H          62.9756   89.2432    9.9598 H       1  UNL1        0.1236
@<TRIPOS>BOND
     1    14    13    1
     2    14    15    1
     3    15    16    1
     4    16    17    1
     5    17    12    1
     6    12     1    1
     7     1    22    1
     8    23    22    1
     9    23    24    1
    10    24    25    1
    11    25    26   ar
    12    26    27   ar
    13    27    28   ar
    14    28    29   ar
    15    29    30   ar
    16    30    31    1
    17    31    32    1
    18     2     1    1
    19     2     3    1
    20     3     4    1
    21     4     5    1
    22     5     6    1
    23     6     7   ar
    24     7     8   ar
    25     8     9   ar
    26     9    10   ar
    27    10    11   ar
    28    17    18    1
    29    18    19    1
    30    19    14    1
    31    32    23    1
    32    11     2    1
    33    30    25   ar
    34    11     6   ar
    35    13    20    1
    36    13    21    1
    37    32    33    1
