@<TRIPOS>MOLECULE
*****
 29 31 0 0 0
SMALL
GASTEIGER

@<TRIPOS>ATOM
      1 O          63.1522   90.3083   14.9247 O.3     1  UNL1       -0.4705
      2 C          63.9529   90.9937   13.8574 C.ar    1  UNL1        0.1449
      3 C          63.4991   90.9408   12.4287 C.ar    1  UNL1        0.0718
      4 C          62.3134   90.2945   11.7756 C.ar    1  UNL1        0.0467
      5 C          62.3815   90.5805   10.3047 C.ar    1  UNL1        0.1797
      6 O          63.6091   91.4035   10.0487 O.2     1  UNL1       -0.4502
      7 C          64.2999   91.6262   11.3615 C.ar    1  UNL1        0.1514
      8 C          65.5545   92.3645   11.7229 C.ar    1  UNL1        0.0753
      9 C          66.0084   92.4175   13.1516 C.ar    1  UNL1        0.1546
     10 O          67.2631   93.1558   13.5131 O.2     1  UNL1       -0.4208
     11 C          67.7170   93.2088   14.9417 C.ar    1  UNL1        0.3459
     12 O          68.9716   93.9471   15.3032 O.2     1  UNL1       -0.2445
     13 C          66.9162   92.5234   16.0091 C.ar    1  UNL1        0.0825
     14 C          65.6616   91.7850   15.6476 C.ar    1  UNL1        0.0127
     15 C          65.2077   91.7321   14.2188 C.ar    1  UNL1        0.0690
     16 C          63.6969   89.0861   15.6025 C.3     1  UNL1        0.2312
     17 C          63.4083   86.2732   16.6045 C.3     1  UNL1        0.0261
     18 C          64.0690   86.5347   15.2835 C.2     1  UNL1       -0.0445
     19 C          64.2134   87.9411   14.7825 C.2     1  UNL1        0.0122
     20 C          64.5855   85.3897   14.4636 C.3     1  UNL1        0.0244
     21 C          63.6345   84.5550   13.6581 C.3     1  UNL1        0.0360
     22 C          63.2326   83.1946   14.1458 C.3     1  UNL1        0.1352
     23 O          63.0631   82.9444   15.6151 O.3     1  UNL1       -0.3821
     24 H          63.2498   83.7602   16.1056 H       1  UNL1        0.2104
     25 C          63.0002   82.0844   13.1643 C.3     1  UNL1        0.1129
     26 C          64.1709   82.5560   12.3536 C.3     1  UNL1        0.0318
     27 C          61.8295   81.6127   13.9749 C.3     1  UNL1        0.0318
     28 O          62.7678   80.9742   12.1827 O.3     1  UNL1       -0.3844
     29 H          63.4315   81.0225   11.4769 H       1  UNL1        0.2103
@<TRIPOS>BOND
     1    17    18    1
     2    18    19    2
     3    19    16    1
     4    16     1    1
     5     1     2    1
     6     2     3   ar
     7     3     4   ar
     8     4     5   ar
     9     5     6   ar
    10     6     7   ar
    11     7     8   ar
    12     8     9   ar
    13     9    10   ar
    14    10    11   ar
    15    11    12    2
    16    11    13   ar
    17    13    14   ar
    18    14    15   ar
    19    18    20    1
    20    20    21    1
    21    21    22    1
    22    22    23    1
    23    22    25    1
    24    25    26    1
    25    25    27    1
    26    25    28    1
    27    15     2   ar
    28     7     3   ar
    29    15     9   ar
    30    23    24    1
    31    28    29    1
@<TRIPOS>MOLECULE
*****
 29 31 0 0 0
SMALL
GASTEIGER

@<TRIPOS>ATOM
      1 O          64.3835   84.0462   11.7068 O.3     1  UNL1       -0.4705
      2 C          63.6648   83.7944   12.9991 C.ar    1  UNL1        0.1449
      3 C          63.0376   82.4571   13.2603 C.ar    1  UNL1        0.0718
      4 C          62.9656   81.2045   12.4382 C.ar    1  UNL1        0.0467
      5 C          62.2024   80.1787   13.2225 C.ar    1  UNL1        0.1797
      6 O          61.8027   80.7972   14.5293 O.2     1  UNL1       -0.4502
      7 C          62.3189   82.2054   14.5527 C.ar    1  UNL1        0.1514
      8 C          62.2274   83.2909   15.5838 C.ar    1  UNL1        0.0753
      9 C          62.8546   84.6282   15.3225 C.ar    1  UNL1        0.1546
     10 O          62.7630   85.7138   16.3537 O.2     1  UNL1       -0.4208
     11 C          63.3902   87.0511   16.0924 C.ar    1  UNL1        0.3459
     12 O          63.2987   88.1367   17.1235 O.2     1  UNL1       -0.2445
     13 C          64.1089   87.3030   14.8001 C.ar    1  UNL1        0.0825
     14 C          64.2004   86.2174   13.7690 C.ar    1  UNL1        0.0127
     15 C          63.5732   84.8800   14.0303 C.ar    1  UNL1        0.0690
     16 C          63.6091   84.1548   10.4267 C.3     1  UNL1        0.2312
     17 C          62.7967   85.1531    7.7169 C.3     1  UNL1        0.0261
     18 C          62.1032   85.6660    8.9441 C.2     1  UNL1       -0.0445
     19 C          62.5094   85.1669   10.2990 C.2     1  UNL1        0.0122
     20 C          61.0035   86.6782    8.8163 C.3     1  UNL1        0.0244
     21 C          60.5061   87.4027   10.0319 C.3     1  UNL1        0.0360
     22 C          60.8157   88.8589   10.2160 C.3     1  UNL1        0.1352
     23 O          60.7669   89.7904    9.0413 O.3     1  UNL1       -0.3821
     24 H          60.5213   89.2939    8.2450 H       1  UNL1        0.2104
     25 C          61.1739   89.3834   11.5748 C.3     1  UNL1        0.1129
     26 C          62.5817   88.8991   11.3907 C.3     1  UNL1        0.0318
     27 C          59.7663   89.8677   11.7591 C.3     1  UNL1        0.0318
     28 O          61.5322   89.9079   12.9337 O.3     1  UNL1       -0.3844
     29 H          62.4677   89.7257   13.1143 H       1  UNL1        0.2103
@<TRIPOS>BOND
     1    17    18    1
     2    18    19    2
     3    19    16    1
     4    16     1    1
     5     1     2    1
     6     2     3   ar
     7     3     4   ar
     8     4     5   ar
     9     5     6   ar
    10     6     7   ar
    11     7     8   ar
    12     8     9   ar
    13     9    10   ar
    14    10    11   ar
    15    11    12    2
    16    11    13   ar
    17    13    14   ar
    18    14    15   ar
    19    18    20    1
    20    20    21    1
    21    21    22    1
    22    22    23    1
    23    22    25    1
    24    25    26    1
    25    25    27    1
    26    25    28    1
    27    15     2   ar
    28     7     3   ar
    29    15     9   ar
    30    23    24    1
    31    28    29    1
@<TRIPOS>MOLECULE
*****
 29 31 0 0 0
SMALL
GASTEIGER

@<TRIPOS>ATOM
      1 O          61.2183   86.3304   11.4282 O.3     1  UNL1       -0.4705
      2 C          61.2791   87.6738   10.7637 C.ar    1  UNL1        0.1449
      3 C          60.4867   87.9301    9.5162 C.ar    1  UNL1        0.0718
      4 C          59.5642   87.0587    8.7164 C.ar    1  UNL1        0.0467
      5 C          59.0550   87.8637    7.5576 C.ar    1  UNL1        0.1797
      6 O          59.6627   89.2325    7.6413 O.2     1  UNL1       -0.4502
      7 C          60.5475   89.2736    8.8518 C.ar    1  UNL1        0.1514
      8 C          61.4008   90.3607    9.4349 C.ar    1  UNL1        0.0753
      9 C          62.1932   90.1044   10.6824 C.ar    1  UNL1        0.1546
     10 O          63.0465   91.1917   11.2655 O.2     1  UNL1       -0.4208
     11 C          63.8389   90.9354   12.5131 C.ar    1  UNL1        0.3459
     12 O          64.6922   92.0225   13.0962 O.2     1  UNL1       -0.2445
     13 C          63.7781   89.5919   13.1775 C.ar    1  UNL1        0.0825
     14 C          62.9249   88.5048   12.5944 C.ar    1  UNL1        0.0127
     15 C          62.1324   88.7611   11.3468 C.ar    1  UNL1        0.0690
     16 C          62.1305   85.2285   10.9768 C.3     1  UNL1        0.2312
     17 C          64.1482   83.1869   10.1046 C.3     1  UNL1        0.0261
     18 C          63.7547   83.2831   11.5489 C.2     1  UNL1       -0.0445
     19 C          62.7458   84.3038   11.9849 C.2     1  UNL1        0.0122
     20 C          64.3700   82.3584   12.5570 C.3     1  UNL1        0.0244
     21 C          64.2154   82.6370   14.0228 C.3     1  UNL1        0.0360
     22 C          64.6479   83.9589   14.5846 C.3     1  UNL1        0.1352
     23 O          66.0649   84.4195   14.4125 O.3     1  UNL1       -0.3821
     24 H          66.5648   83.7503   13.9193 H       1  UNL1        0.2104
     25 C          63.6632   84.8200   15.3186 C.3     1  UNL1        0.1129
     26 C          64.5148   86.0249   15.0476 C.3     1  UNL1        0.0318
     27 C          62.8116   83.6153   15.5896 C.3     1  UNL1        0.0318
     28 O          62.6785   85.6812   16.0526 O.3     1  UNL1       -0.3844
     29 H          62.9854   86.6013   16.0456 H       1  UNL1        0.2103
@<TRIPOS>BOND
     1    17    18    1
     2    18    19    2
     3    19    16    1
     4    16     1    1
     5     1     2    1
     6     2     3   ar
     7     3     4   ar
     8     4     5   ar
     9     5     6   ar
    10     6     7   ar
    11     7     8   ar
    12     8     9   ar
    13     9    10   ar
    14    10    11   ar
    15    11    12    2
    16    11    13   ar
    17    13    14   ar
    18    14    15   ar
    19    18    20    1
    20    20    21    1
    21    21    22    1
    22    22    23    1
    23    22    25    1
    24    25    26    1
    25    25    27    1
    26    25    28    1
    27    15     2   ar
    28     7     3   ar
    29    15     9   ar
    30    23    24    1
    31    28    29    1
@<TRIPOS>MOLECULE
*****
 29 31 0 0 0
SMALL
GASTEIGER

@<TRIPOS>ATOM
      1 O          62.7824   89.6259   14.1852 O.3     1  UNL1       -0.4705
      2 C          62.9197   90.1138   12.7734 C.ar    1  UNL1        0.1449
      3 C          62.0074   89.5870   11.7057 C.ar    1  UNL1        0.0718
      4 C          60.8875   88.5898   11.7446 C.ar    1  UNL1        0.0467
      5 C          60.3328   88.4613   10.3569 C.ar    1  UNL1        0.1797
      6 O          61.1098   89.3792    9.4603 O.2     1  UNL1       -0.4502
      7 C          62.1447   90.0749   10.2939 C.ar    1  UNL1        0.1514
      8 C          63.1945   91.0896    9.9499 C.ar    1  UNL1        0.0753
      9 C          64.1069   91.6164   11.0176 C.ar    1  UNL1        0.1546
     10 O          65.1566   92.6311   10.6734 O.2     1  UNL1       -0.4208
     11 C          66.0690   93.1579   11.7412 C.ar    1  UNL1        0.3459
     12 O          67.1187   94.1726   11.3971 O.2     1  UNL1       -0.2445
     13 C          65.9317   92.6701   13.1530 C.ar    1  UNL1        0.0825
     14 C          64.8819   91.6554   13.4970 C.ar    1  UNL1        0.0127
     15 C          63.9695   91.1285   12.4293 C.ar    1  UNL1        0.0690
     16 C          63.9224   88.9081   14.8448 C.3     1  UNL1        0.2312
     17 C          63.5473   86.3792   16.4146 C.3     1  UNL1        0.0261
     18 C          64.2203   86.3374   15.0747 C.2     1  UNL1       -0.0445
     19 C          64.4078   87.6018   14.2898 C.2     1  UNL1        0.0122
     20 C          64.7058   85.0311   14.5197 C.3     1  UNL1        0.0244
     21 C          63.8231   84.2280   13.6110 C.3     1  UNL1        0.0360
     22 C          63.1603   82.9817   14.1184 C.3     1  UNL1        0.1352
     23 O          62.7448   82.8855   15.5565 O.3     1  UNL1       -0.3821
     24 H          62.9755   83.7083   16.0154 H       1  UNL1        0.2104
     25 C          62.9130   81.8316   13.1877 C.3     1  UNL1        0.1129
     26 C          64.0345   82.3014   12.3092 C.3     1  UNL1        0.0318
     27 C          61.7916   81.3618   14.0662 C.3     1  UNL1        0.0318
     28 O          62.6658   80.6815   12.2570 O.3     1  UNL1       -0.3844
     29 H          63.2962   80.7201   11.5208 H       1  UNL1        0.2103
@<TRIPOS>BOND
     1    17    18    1
     2    18    19    2
     3    19    16    1
     4    16     1    1
     5     1     2    1
     6     2     3   ar
     7     3     4   ar
     8     4     5   ar
     9     5     6   ar
    10     6     7   ar
    11     7     8   ar
    12     8     9   ar
    13     9    10   ar
    14    10    11   ar
    15    11    12    2
    16    11    13   ar
    17    13    14   ar
    18    14    15   ar
    19    18    20    1
    20    20    21    1
    21    21    22    1
    22    22    23    1
    23    22    25    1
    24    25    26    1
    25    25    27    1
    26    25    28    1
    27    15     2   ar
    28     7     3   ar
    29    15     9   ar
    30    23    24    1
    31    28    29    1
@<TRIPOS>MOLECULE
*****
 29 31 0 0 0
SMALL
GASTEIGER

@<TRIPOS>ATOM
      1 O          62.9378   89.8442   14.7476 O.3     1  UNL1       -0.4705
      2 C          63.3593   90.4487   13.4410 C.ar    1  UNL1        0.1449
      3 C          64.5612   91.3440   13.3818 C.ar    1  UNL1        0.0718
      4 C          65.5197   91.8086   14.4380 C.ar    1  UNL1        0.0467
      5 C          66.5334   92.7002   13.7842 C.ar    1  UNL1        0.1797
      6 O          66.2015   92.7866   12.3240 O.2     1  UNL1       -0.4502
      7 C          64.9826   91.9485   12.0753 C.ar    1  UNL1        0.1514
      8 C          64.2020   91.6575   10.8279 C.ar    1  UNL1        0.0753
      9 C          63.0000   90.7622   10.8871 C.ar    1  UNL1        0.1546
     10 O          62.2194   90.4713    9.6396 O.2     1  UNL1       -0.4208
     11 C          61.0174   89.5759    9.6988 C.ar    1  UNL1        0.3459
     12 O          60.2367   89.2850    8.4514 O.2     1  UNL1       -0.2445
     13 C          60.5959   88.9714   11.0054 C.ar    1  UNL1        0.0825
     14 C          61.3766   89.2623   12.2527 C.ar    1  UNL1        0.0127
     15 C          62.5786   90.1577   12.1936 C.ar    1  UNL1        0.0690
     16 C          63.8242   88.8469   15.4331 C.3     1  UNL1        0.2312
     17 C          63.4702   86.0914   16.5653 C.3     1  UNL1        0.0261
     18 C          64.1583   86.2773   15.2455 C.2     1  UNL1       -0.0445
     19 C          64.3353   87.6550   14.6794 C.2     1  UNL1        0.0122
     20 C          64.6695   85.0853   14.4918 C.3     1  UNL1        0.0244
     21 C          63.7386   84.2906   13.6247 C.3     1  UNL1        0.0360
     22 C          63.1915   82.9823   14.1139 C.3     1  UNL1        0.1352
     23 O          62.8578   82.8048   15.5655 O.3     1  UNL1       -0.3821
     24 H          63.0535   83.6249   16.0449 H       1  UNL1        0.2104
     25 C          62.9781   81.8518   13.1515 C.3     1  UNL1        0.1129
     26 C          61.7857   81.4028   13.9432 C.3     1  UNL1        0.0318
     27 C          64.1703   82.3008   12.3597 C.3     1  UNL1        0.0318
     28 O          62.7647   80.7213   12.1890 O.3     1  UNL1       -0.3844
     29 H          61.9917   80.2038   12.4643 H       1  UNL1        0.2103
@<TRIPOS>BOND
     1    17    18    1
     2    18    19    2
     3    19    16    1
     4    16     1    1
     5     1     2    1
     6     2     3   ar
     7     3     4   ar
     8     4     5   ar
     9     5     6   ar
    10     6     7   ar
    11     7     8   ar
    12     8     9   ar
    13     9    10   ar
    14    10    11   ar
    15    11    12    2
    16    11    13   ar
    17    13    14   ar
    18    14    15   ar
    19    18    20    1
    20    20    21    1
    21    21    22    1
    22    22    23    1
    23    22    25    1
    24    25    26    1
    25    25    27    1
    26    25    28    1
    27    15     2   ar
    28     7     3   ar
    29    15     9   ar
    30    23    24    1
    31    28    29    1
@<TRIPOS>MOLECULE
*****
 29 31 0 0 0
SMALL
GASTEIGER

@<TRIPOS>ATOM
      1 O          62.1576   88.9775   12.2546 O.3     1  UNL1       -0.4705
      2 C          61.9314   87.8630   11.2764 C.ar    1  UNL1        0.1449
      3 C          61.1700   88.1197   10.0098 C.ar    1  UNL1        0.0718
      4 C          60.5279   89.3579    9.4582 C.ar    1  UNL1        0.0467
      5 C          59.9049   89.0087    8.1392 C.ar    1  UNL1        0.1797
      6 O          60.1620   87.5546    7.8755 O.2     1  UNL1       -0.4502
      7 C          60.9439   87.0051    9.0317 C.ar    1  UNL1        0.1514
      8 C          61.4792   85.6339    9.3201 C.ar    1  UNL1        0.0753
      9 C          62.2407   85.3773   10.5867 C.ar    1  UNL1        0.1546
     10 O          62.7760   84.0060   10.8752 O.2     1  UNL1       -0.4208
     11 C          63.5374   83.7493   12.1418 C.ar    1  UNL1        0.3459
     12 O          64.0727   82.3781   12.4303 O.2     1  UNL1       -0.2445
     13 C          63.7636   84.8638   13.1200 C.ar    1  UNL1        0.0825
     14 C          63.2283   86.2350   12.8315 C.ar    1  UNL1        0.0127
     15 C          62.4668   86.4917   11.5648 C.ar    1  UNL1        0.0690
     16 C          63.3120   89.9168   12.0675 C.3     1  UNL1        0.2312
     17 C          64.5417   89.1182   14.6847 C.3     1  UNL1        0.0261
     18 C          64.2225   90.5587   14.4146 C.2     1  UNL1       -0.0445
     19 C          63.6076   90.9580   13.1060 C.2     1  UNL1        0.0122
     20 C          64.5181   91.6000   15.4531 C.3     1  UNL1        0.0244
     21 C          65.9388   91.9701   15.7609 C.3     1  UNL1        0.0360
     22 C          66.7053   92.8504   14.8188 C.3     1  UNL1        0.1352
     23 O          66.0659   94.0867   14.2596 O.3     1  UNL1       -0.3821
     24 H          65.1634   94.1686   14.6054 H       1  UNL1        0.2104
     25 C          68.1113   92.4944   14.4360 C.3     1  UNL1        0.1129
     26 C          67.6126   91.9103   13.1475 C.3     1  UNL1        0.0318
     27 C          68.6100   93.0785   15.7245 C.3     1  UNL1        0.0318
     28 O          69.5172   92.1384   14.0532 O.3     1  UNL1       -0.3844
     29 H          69.5162   91.7055   13.1852 H       1  UNL1        0.2103
@<TRIPOS>BOND
     1    17    18    1
     2    18    19    2
     3    19    16    1
     4    16     1    1
     5     1     2    1
     6     2     3   ar
     7     3     4   ar
     8     4     5   ar
     9     5     6   ar
    10     6     7   ar
    11     7     8   ar
    12     8     9   ar
    13     9    10   ar
    14    10    11   ar
    15    11    12    2
    16    11    13   ar
    17    13    14   ar
    18    14    15   ar
    19    18    20    1
    20    20    21    1
    21    21    22    1
    22    22    23    1
    23    22    25    1
    24    25    26    1
    25    25    27    1
    26    25    28    1
    27    15     2   ar
    28     7     3   ar
    29    15     9   ar
    30    23    24    1
    31    28    29    1
@<TRIPOS>MOLECULE
*****
 29 31 0 0 0
SMALL
GASTEIGER

@<TRIPOS>ATOM
      1 O          63.0148   85.8565   13.9428 O.3     1  UNL1       -0.4705
      2 C          63.0098   85.3992   12.5142 C.ar    1  UNL1        0.1449
      3 C          63.6436   84.0914   12.1430 C.ar    1  UNL1        0.0718
      4 C          64.3440   83.0474   12.9613 C.ar    1  UNL1        0.0467
      5 C          64.7718   81.9451   12.0384 C.ar    1  UNL1        0.1797
      6 O          64.3359   82.3077   10.6497 O.2     1  UNL1       -0.4502
      7 C          63.6386   83.6342   10.7144 C.ar    1  UNL1        0.1514
      8 C          62.9997   84.4848    9.6569 C.ar    1  UNL1        0.0753
      9 C          62.3659   85.7927   10.0281 C.ar    1  UNL1        0.1546
     10 O          61.7270   86.6433    8.9706 O.2     1  UNL1       -0.4208
     11 C          61.0932   87.9512    9.3418 C.ar    1  UNL1        0.3459
     12 O          60.4543   88.8019    8.2843 O.2     1  UNL1       -0.2445
     13 C          61.0982   88.4085   10.7704 C.ar    1  UNL1        0.0825
     14 C          61.7371   87.5578   11.8278 C.ar    1  UNL1        0.0127
     15 C          62.3709   86.2499   11.4566 C.ar    1  UNL1        0.0690
     16 C          64.2316   86.5235   14.5125 C.3     1  UNL1        0.2312
     17 C          63.1639   88.4223   16.5750 C.3     1  UNL1        0.0261
     18 C          63.8915   88.9507   15.3745 C.2     1  UNL1       -0.0445
     19 C          64.4254   88.0012   14.3432 C.2     1  UNL1        0.0122
     20 C          64.0853   90.4284   15.2052 C.3     1  UNL1        0.0244
     21 C          65.2698   90.9473   14.4450 C.3     1  UNL1        0.0360
     22 C          66.1353   92.0163   15.0436 C.3     1  UNL1        0.1352
     23 O          65.5625   92.9683   16.0512 O.3     1  UNL1       -0.3821
     24 H          64.6280   92.7562   16.2018 H       1  UNL1        0.2104
     25 C          67.5737   92.1331   14.6344 C.3     1  UNL1        0.1129
     26 C          67.9762   92.2281   16.0763 C.3     1  UNL1        0.0318
     27 C          67.1712   92.0381   13.1925 C.3     1  UNL1        0.0318
     28 O          69.0120   92.2499   14.2252 O.3     1  UNL1       -0.3844
     29 H          69.5675   92.3330   15.0160 H       1  UNL1        0.2103
@<TRIPOS>BOND
     1    17    18    1
     2    18    19    2
     3    19    16    1
     4    16     1    1
     5     1     2    1
     6     2     3   ar
     7     3     4   ar
     8     4     5   ar
     9     5     6   ar
    10     6     7   ar
    11     7     8   ar
    12     8     9   ar
    13     9    10   ar
    14    10    11   ar
    15    11    12    2
    16    11    13   ar
    17    13    14   ar
    18    14    15   ar
    19    18    20    1
    20    20    21    1
    21    21    22    1
    22    22    23    1
    23    22    25    1
    24    25    26    1
    25    25    27    1
    26    25    28    1
    27    15     2   ar
    28     7     3   ar
    29    15     9   ar
    30    23    24    1
    31    28    29    1
@<TRIPOS>MOLECULE
*****
 29 31 0 0 0
SMALL
GASTEIGER

@<TRIPOS>ATOM
      1 O          63.1651   86.0443   14.4640 O.3     1  UNL1       -0.4705
      2 C          62.9235   85.4659   13.1012 C.ar    1  UNL1        0.1449
      3 C          62.7120   86.3751   11.9271 C.ar    1  UNL1        0.0718
      4 C          62.6870   87.8701   11.8072 C.ar    1  UNL1        0.0467
      5 C          62.4300   88.2156   10.3703 C.ar    1  UNL1        0.1797
      6 O          62.2961   86.9341    9.6022 O.2     1  UNL1       -0.4502
      7 C          62.4704   85.7966   10.5644 C.ar    1  UNL1        0.1514
      8 C          62.4403   84.3088   10.3758 C.ar    1  UNL1        0.0753
      9 C          62.6518   83.3996   11.5498 C.ar    1  UNL1        0.1546
     10 O          62.6218   81.9117   11.3611 O.2     1  UNL1       -0.4208
     11 C          62.8333   81.0025   12.5352 C.ar    1  UNL1        0.3459
     12 O          62.8032   79.5147   12.3465 O.2     1  UNL1       -0.2445
     13 C          63.0749   81.5809   13.8980 C.ar    1  UNL1        0.0825
     14 C          63.1050   83.0687   14.0866 C.ar    1  UNL1        0.0127
     15 C          62.8934   83.9780   12.9125 C.ar    1  UNL1        0.0690
     16 C          64.4472   86.7663   14.7557 C.3     1  UNL1        0.2312
     17 C          63.1858   88.6615   16.7094 C.3     1  UNL1        0.0261
     18 C          63.9111   89.1942   15.5093 C.2     1  UNL1       -0.0445
     19 C          64.5418   88.2466   14.5325 C.2     1  UNL1        0.0122
     20 C          64.0058   90.6745   15.2862 C.3     1  UNL1        0.0244
     21 C          65.1731   91.2470   14.5382 C.3     1  UNL1        0.0360
     22 C          66.1872   92.0854   15.2586 C.3     1  UNL1        0.1352
     23 O          65.7976   92.8317   16.5000 O.3     1  UNL1       -0.3821
     24 H          64.8627   92.6651   16.6975 H       1  UNL1        0.2104
     25 C          67.5907   92.1774   14.7375 C.3     1  UNL1        0.1129
     26 C          67.0762   92.0698   13.3325 C.3     1  UNL1        0.0318
     27 C          68.1053   92.2850   16.1423 C.3     1  UNL1        0.0318
     28 O          68.9942   92.2694   14.2163 O.3     1  UNL1       -0.3844
     29 H          68.9831   92.2236   13.2475 H       1  UNL1        0.2103
@<TRIPOS>BOND
     1    17    18    1
     2    18    19    2
     3    19    16    1
     4    16     1    1
     5     1     2    1
     6     2     3   ar
     7     3     4   ar
     8     4     5   ar
     9     5     6   ar
    10     6     7   ar
    11     7     8   ar
    12     8     9   ar
    13     9    10   ar
    14    10    11   ar
    15    11    12    2
    16    11    13   ar
    17    13    14   ar
    18    14    15   ar
    19    18    20    1
    20    20    21    1
    21    21    22    1
    22    22    23    1
    23    22    25    1
    24    25    26    1
    25    25    27    1
    26    25    28    1
    27    15     2   ar
    28     7     3   ar
    29    15     9   ar
    30    23    24    1
    31    28    29    1
@<TRIPOS>MOLECULE
*****
 29 31 0 0 0
SMALL
GASTEIGER

@<TRIPOS>ATOM
      1 O          62.8723   85.6690   13.8101 O.3     1  UNL1       -0.4705
      2 C          62.9275   85.2598   12.3680 C.ar    1  UNL1        0.1449
      3 C          63.6260   83.9921   11.9743 C.ar    1  UNL1        0.0718
      4 C          64.3457   82.9511   12.7794 C.ar    1  UNL1        0.0467
      5 C          64.8457   81.8985   11.8349 C.ar    1  UNL1        0.1797
      6 O          64.4350   82.2891   10.4461 O.2     1  UNL1       -0.4502
      7 C          63.6812   83.5830   10.5322 C.ar    1  UNL1        0.1514
      8 C          63.0379   84.4416    9.4839 C.ar    1  UNL1        0.0753
      9 C          62.3394   85.7093    9.8776 C.ar    1  UNL1        0.1546
     10 O          61.6961   86.5678    8.8292 O.2     1  UNL1       -0.4208
     11 C          60.9977   87.8355    9.2229 C.ar    1  UNL1        0.3459
     12 O          60.3544   88.6941    8.1746 O.2     1  UNL1       -0.2445
     13 C          60.9424   88.2447   10.6650 C.ar    1  UNL1        0.0825
     14 C          61.5857   87.3862   11.7133 C.ar    1  UNL1        0.0127
     15 C          62.2842   86.1184   11.3196 C.ar    1  UNL1        0.0690
     16 C          64.0509   86.3477   14.4428 C.3     1  UNL1        0.2312
     17 C          63.2566   88.3227   16.5565 C.3     1  UNL1        0.0261
     18 C          63.8821   88.8014   15.2799 C.2     1  UNL1       -0.0445
     19 C          64.2792   87.8138   14.2230 C.2     1  UNL1        0.0122
     20 C          64.1103   90.2675   15.0602 C.3     1  UNL1        0.0244
     21 C          64.7187   90.7477   13.7760 C.3     1  UNL1        0.0360
     22 C          63.8365   91.1189   12.6209 C.3     1  UNL1        0.1352
     23 O          62.3906   90.7198   12.6230 O.3     1  UNL1       -0.3821
     24 H          62.1910   90.2319   13.4373 H       1  UNL1        0.2104
     25 C          64.4003   91.8892   11.4639 C.3     1  UNL1        0.1129
     26 C          65.4029   92.5287   12.3782 C.3     1  UNL1        0.0318
     27 C          63.3977   91.2498   10.5496 C.3     1  UNL1        0.0318
     28 O          64.9641   92.6596   10.3070 O.3     1  UNL1       -0.3844
     29 H          65.6969   93.2155   10.6150 H       1  UNL1        0.2103
@<TRIPOS>BOND
     1    17    18    1
     2    18    19    2
     3    19    16    1
     4    16     1    1
     5     1     2    1
     6     2     3   ar
     7     3     4   ar
     8     4     5   ar
     9     5     6   ar
    10     6     7   ar
    11     7     8   ar
    12     8     9   ar
    13     9    10   ar
    14    10    11   ar
    15    11    12    2
    16    11    13   ar
    17    13    14   ar
    18    14    15   ar
    19    18    20    1
    20    20    21    1
    21    21    22    1
    22    22    23    1
    23    22    25    1
    24    25    26    1
    25    25    27    1
    26    25    28    1
    27    15     2   ar
    28     7     3   ar
    29    15     9   ar
    30    23    24    1
    31    28    29    1
