@<TRIPOS>MOLECULE
*****
 35 38 0 0 0
SMALL
GASTEIGER

@<TRIPOS>ATOM
      1 N          61.3649   90.1372   10.5926 N.3     1  UNL1       -0.2727
      2 C          62.5779   90.8104   10.0223 C.3     1  UNL1        0.0722
      3 C          63.7066   91.2124   10.9249 C.3     1  UNL1        0.0204
      4 C          63.6221   90.9413   12.3977 C.3     1  UNL1        0.0353
      5 C          62.4090   90.2680   12.9681 C.3     1  UNL1        0.0204
      6 C          61.2804   89.8660   12.0655 C.3     1  UNL1        0.0722
      7 C          64.7507   91.3433   13.3003 C.3     1  UNL1        0.1256
      8 O          65.1712   92.3878   12.3092 O.3     1  UNL1       -0.3786
      9 H          64.8406   92.1499   11.4289 H       1  UNL1        0.2111
     10 C          65.8793   91.7453   14.2028 C.ar    1  UNL1        0.0056
     11 C          65.5881   92.3210   15.5570 C.ar    1  UNL1       -0.0017
     12 C          66.7167   92.7230   16.4596 C.ar    1  UNL1       -0.0002
     13 C          68.1365   92.5493   16.0080 C.ar    1  UNL1       -0.0000
     14 C          68.4278   91.9735   14.6538 C.ar    1  UNL1       -0.0002
     15 C          67.2992   91.5715   13.7512 C.ar    1  UNL1       -0.0017
     16 C          64.3302   90.2988   14.2913 C.ar    1  UNL1        0.0056
     17 C          63.6199   90.7015   15.5496 C.ar    1  UNL1       -0.0017
     18 C          63.1994   89.6570   16.5406 C.ar    1  UNL1       -0.0002
     19 C          63.4892   88.2098   16.2734 C.ar    1  UNL1       -0.0000
     20 C          64.1995   87.8070   15.0152 C.ar    1  UNL1       -0.0002
     21 C          64.6200   88.8515   14.0242 C.ar    1  UNL1       -0.0017
     22 C          60.2363   89.7352    9.6900 C.3     1  UNL1        0.0725
     23 C          60.2969   88.4331    8.9478 C.3     1  UNL1        0.0254
     24 C          60.5620   87.1576    9.6913 C.3     1  UNL1        0.0706
     25 C          61.4760   86.1233    9.1041 C.2     1  UNL1        0.1731
     26 O          61.6220   86.0098    7.6156 O.2     1  UNL1       -0.2913
     27 C          63.7798   83.3610   11.8082 C.ar    1  UNL1       -0.0222
     28 C          63.9976   83.3124   10.3249 C.ar    1  UNL1       -0.0042
     29 C          63.2296   84.2332    9.4235 C.ar    1  UNL1        0.0025
     30 C          62.2439   85.2025   10.0055 C.ar    1  UNL1        0.0347
     31 C          62.0262   85.2511   11.4888 C.ar    1  UNL1        0.0025
     32 C          62.7941   84.3303   12.3901 C.ar    1  UNL1       -0.0042
     33 C          64.5478   82.4402   12.7095 C.3     1  UNL1        0.0264
     34 C          62.7174   80.5971   12.7616 C.3     1  UNL1        0.0004
     35 C          63.8379   81.3345   13.4330 C.3     1  UNL1        0.0047
@<TRIPOS>BOND
     1    34    35    1
     2    35    33    1
     3    33    27    1
     4    27    28   ar
     5    28    29   ar
     6    29    30   ar
     7    30    25    1
     8    25    26    2
     9    25    24    1
    10    24    23    1
    11    23    22    1
    12    22     1    1
    13     1     2    1
    14     2     3    1
    15     3     4    1
    16     4     7    1
    17     7     8    1
    18     7    10    1
    19    10    11   ar
    20    11    12   ar
    21    12    13   ar
    22    13    14   ar
    23    14    15   ar
    24     7    16    1
    25    16    17   ar
    26    17    18   ar
    27    18    19   ar
    28    19    20   ar
    29    20    21   ar
    30     4     5    1
    31     5     6    1
    32    30    31   ar
    33    31    32   ar
    34    32    27   ar
    35     6     1    1
    36    15    10   ar
    37    21    16   ar
    38     8     9    1
@<TRIPOS>MOLECULE
*****
 35 38 0 0 0
SMALL
GASTEIGER

@<TRIPOS>ATOM
      1 N          62.1204   90.4404   10.6885 N.3     1  UNL1       -0.2727
      2 C          62.2560   89.9567   12.1019 C.3     1  UNL1        0.0722
      3 C          63.4201   90.3998   12.9377 C.3     1  UNL1        0.0204
      4 C          64.4485   91.3265   12.3602 C.3     1  UNL1        0.0353
      5 C          64.3128   91.8102   10.9468 C.3     1  UNL1        0.0204
      6 C          63.1488   91.3671   10.1109 C.3     1  UNL1        0.0722
      7 C          65.6125   91.7696   13.1961 C.3     1  UNL1        0.1256
      8 O          65.1085   90.9385   14.3385 O.3     1  UNL1       -0.3786
      9 H          64.1561   90.7880   14.2333 H       1  UNL1        0.2111
     10 C          66.7766   92.2127   14.0319 C.ar    1  UNL1        0.0056
     11 C          68.1748   91.8648   13.6151 C.ar    1  UNL1       -0.0017
     12 C          69.3389   92.3079   14.4509 C.ar    1  UNL1       -0.0002
     13 C          69.1047   93.0989   15.7036 C.ar    1  UNL1       -0.0000
     14 C          67.7064   93.4469   16.1205 C.ar    1  UNL1       -0.0002
     15 C          66.5423   93.0038   15.2847 C.ar    1  UNL1       -0.0017
     16 C          66.1165   92.6007   12.0536 C.ar    1  UNL1        0.0056
     17 C          65.7800   94.0608   11.9825 C.ar    1  UNL1       -0.0017
     18 C          66.2840   94.8919   10.8401 C.ar    1  UNL1       -0.0002
     19 C          67.1245   94.2630    9.7686 C.ar    1  UNL1       -0.0000
     20 C          67.4610   92.8030    9.8397 C.ar    1  UNL1       -0.0002
     21 C          66.9570   91.9718   10.9822 C.ar    1  UNL1       -0.0017
     22 C          60.9563   89.9973    9.8526 C.3     1  UNL1        0.0725
     23 C          60.9036   88.5946    9.3237 C.3     1  UNL1        0.0254
     24 C          62.0908   87.6904    9.4762 C.3     1  UNL1        0.0706
     25 C          61.9896   86.2467    9.0819 C.2     1  UNL1        0.1731
     26 O          61.2956   85.8640    7.8084 O.2     1  UNL1       -0.2913
     27 C          63.7679   83.0639   11.7195 C.ar    1  UNL1       -0.0222
     28 C          62.8465   84.0934   12.3035 C.ar    1  UNL1       -0.0042
     29 C          62.2538   85.1544   11.4243 C.ar    1  UNL1        0.0025
     30 C          62.5823   85.1858    9.9611 C.ar    1  UNL1        0.0347
     31 C          63.5037   84.1563    9.3771 C.ar    1  UNL1        0.0025
     32 C          64.0965   83.0953   10.2563 C.ar    1  UNL1       -0.0042
     33 C          64.3607   82.0029   12.5987 C.3     1  UNL1        0.0264
     34 C          62.4123   80.3673   13.1262 C.3     1  UNL1        0.0004
     35 C          63.4989   81.2881   13.5968 C.3     1  UNL1        0.0047
@<TRIPOS>BOND
     1    34    35    1
     2    35    33    1
     3    33    27    1
     4    27    28   ar
     5    28    29   ar
     6    29    30   ar
     7    30    25    1
     8    25    26    2
     9    25    24    1
    10    24    23    1
    11    23    22    1
    12    22     1    1
    13     1     2    1
    14     2     3    1
    15     3     4    1
    16     4     7    1
    17     7     8    1
    18     7    10    1
    19    10    11   ar
    20    11    12   ar
    21    12    13   ar
    22    13    14   ar
    23    14    15   ar
    24     7    16    1
    25    16    17   ar
    26    17    18   ar
    27    18    19   ar
    28    19    20   ar
    29    20    21   ar
    30     4     5    1
    31     5     6    1
    32    30    31   ar
    33    31    32   ar
    34    32    27   ar
    35     6     1    1
    36    15    10   ar
    37    21    16   ar
    38     8     9    1
@<TRIPOS>MOLECULE
*****
 35 38 0 0 0
SMALL
GASTEIGER

@<TRIPOS>ATOM
      1 N          63.4517   88.3550   15.9966 N.3     1  UNL1       -0.2727
      2 C          64.1121   87.9902   14.7002 C.3     1  UNL1        0.0722
      3 C          64.6126   89.0676   13.7843 C.3     1  UNL1        0.0204
      4 C          64.4527   90.5096   14.1648 C.3     1  UNL1        0.0353
      5 C          63.7922   90.8744   15.4613 C.3     1  UNL1        0.0204
      6 C          63.2917   89.7971   16.3772 C.3     1  UNL1        0.0722
      7 C          64.9532   91.5870   13.2489 C.3     1  UNL1        0.1256
      8 O          63.8092   91.3244   12.3149 O.3     1  UNL1       -0.3786
      9 H          63.4790   90.4229   12.4535 H       1  UNL1        0.2111
     10 C          65.4537   92.6643   12.3330 C.ar    1  UNL1        0.0056
     11 C          65.9358   93.9666   12.9000 C.ar    1  UNL1       -0.0017
     12 C          66.4363   95.0439   11.9841 C.ar    1  UNL1       -0.0002
     13 C          66.4547   94.8189   10.5012 C.ar    1  UNL1       -0.0000
     14 C          65.9726   93.5166    9.9342 C.ar    1  UNL1       -0.0002
     15 C          65.4720   92.4393   10.8501 C.ar    1  UNL1       -0.0017
     16 C          66.0972   91.8495   14.1829 C.ar    1  UNL1        0.0056
     17 C          65.8410   92.4553   15.5310 C.ar    1  UNL1       -0.0017
     18 C          66.9850   92.7179   16.4650 C.ar    1  UNL1       -0.0002
     19 C          68.3852   92.3746   16.0509 C.ar    1  UNL1       -0.0000
     20 C          68.6414   91.7688   14.7028 C.ar    1  UNL1       -0.0002
     21 C          67.4974   91.5063   13.7688 C.ar    1  UNL1       -0.0017
     22 C          62.9512   87.2776   16.9125 C.3     1  UNL1        0.0725
     23 C          63.4184   85.8636   16.7328 C.3     1  UNL1        0.0254
     24 C          62.6913   84.9470   15.7941 C.3     1  UNL1        0.0706
     25 C          63.4556   83.9398   14.9871 C.2     1  UNL1        0.1731
     26 O          64.2139   82.8452   15.6776 O.2     1  UNL1       -0.2913
     27 C          63.4738   84.2018   10.4948 C.ar    1  UNL1       -0.0222
     28 C          62.6315   85.1481   11.2979 C.ar    1  UNL1       -0.0042
     29 C          62.6254   85.0608   12.7953 C.ar    1  UNL1        0.0025
     30 C          63.4617   84.0271   13.4897 C.ar    1  UNL1        0.0347
     31 C          64.3040   83.0808   12.6866 C.ar    1  UNL1        0.0025
     32 C          64.3100   83.1681   11.1892 C.ar    1  UNL1       -0.0042
     33 C          63.4798   84.2892    8.9973 C.3     1  UNL1        0.0264
     34 C          62.0088   85.0201    6.9844 C.3     1  UNL1        0.0004
     35 C          62.6523   85.3301    8.3034 C.3     1  UNL1        0.0047
@<TRIPOS>BOND
     1    34    35    1
     2    35    33    1
     3    33    27    1
     4    27    28   ar
     5    28    29   ar
     6    29    30   ar
     7    30    25    1
     8    25    26    2
     9    25    24    1
    10    24    23    1
    11    23    22    1
    12    22     1    1
    13     1     2    1
    14     2     3    1
    15     3     4    1
    16     4     7    1
    17     7     8    1
    18     7    10    1
    19    10    11   ar
    20    11    12   ar
    21    12    13   ar
    22    13    14   ar
    23    14    15   ar
    24     7    16    1
    25    16    17   ar
    26    17    18   ar
    27    18    19   ar
    28    19    20   ar
    29    20    21   ar
    30     4     5    1
    31     5     6    1
    32    30    31   ar
    33    31    32   ar
    34    32    27   ar
    35     6     1    1
    36    15    10   ar
    37    21    16   ar
    38     8     9    1
@<TRIPOS>MOLECULE
*****
 35 38 0 0 0
SMALL
GASTEIGER

@<TRIPOS>ATOM
      1 N          63.1957   89.8507   15.1116 N.3     1  UNL1       -0.2727
      2 C          62.9372   89.7114   13.6406 C.3     1  UNL1        0.0722
      3 C          63.7248   90.5287   12.6600 C.3     1  UNL1        0.0204
      4 C          64.7709   91.4853   13.1504 C.3     1  UNL1        0.0353
      5 C          65.0295   91.6246   14.6214 C.3     1  UNL1        0.0204
      6 C          64.2418   90.8073   15.6020 C.3     1  UNL1        0.0722
      7 C          65.5586   92.3027   12.1697 C.3     1  UNL1        0.1256
      8 O          64.5058   92.0669   11.1276 O.3     1  UNL1       -0.3786
      9 H          64.0081   91.2636   11.3467 H       1  UNL1        0.2111
     10 C          66.3462   93.1200   11.1891 C.ar    1  UNL1        0.0056
     11 C          66.1481   94.6053   11.1207 C.ar    1  UNL1       -0.0017
     12 C          66.9357   95.4226   10.1401 C.ar    1  UNL1       -0.0002
     13 C          67.9214   94.7547    9.2279 C.ar    1  UNL1       -0.0000
     14 C          68.1196   93.2693    9.2963 C.ar    1  UNL1       -0.0002
     15 C          67.3320   92.4520   10.2769 C.ar    1  UNL1       -0.0017
     16 C          66.6113   92.5385   13.2119 C.ar    1  UNL1        0.0056
     17 C          67.7898   91.6156   13.3097 C.ar    1  UNL1       -0.0017
     18 C          68.8426   91.8514   14.3518 C.ar    1  UNL1       -0.0002
     19 C          68.7169   93.0100   15.2961 C.ar    1  UNL1       -0.0000
     20 C          67.5385   93.9328   15.1983 C.ar    1  UNL1       -0.0002
     21 C          66.4857   93.6971   14.1562 C.ar    1  UNL1       -0.0017
     22 C          62.4080   89.0333   16.0922 C.3     1  UNL1        0.0725
     23 C          63.1025   88.3709   17.2451 C.3     1  UNL1        0.0254
     24 C          63.4092   86.9036   17.1931 C.3     1  UNL1        0.0706
     25 C          62.4455   85.9586   16.5386 C.2     1  UNL1        0.1731
     26 O          60.9961   85.9790   16.9245 O.2     1  UNL1       -0.2913
     27 C          63.9024   83.0627   13.4175 C.ar    1  UNL1       -0.0222
     28 C          64.6540   84.3364   13.6680 C.ar    1  UNL1       -0.0042
     29 C          64.1684   85.3017   14.7084 C.ar    1  UNL1        0.0025
     30 C          62.9311   84.9933   15.4983 C.ar    1  UNL1        0.0347
     31 C          62.1794   83.7197   15.2478 C.ar    1  UNL1        0.0025
     32 C          62.6651   82.7544   14.2074 C.ar    1  UNL1       -0.0042
     33 C          64.3880   82.0974   12.3772 C.3     1  UNL1        0.0264
     34 C          63.9540   83.4172   10.1818 C.3     1  UNL1        0.0004
     35 C          63.8352   82.1553   10.9840 C.3     1  UNL1        0.0047
@<TRIPOS>BOND
     1    34    35    1
     2    35    33    1
     3    33    27    1
     4    27    28   ar
     5    28    29   ar
     6    29    30   ar
     7    30    25    1
     8    25    26    2
     9    25    24    1
    10    24    23    1
    11    23    22    1
    12    22     1    1
    13     1     2    1
    14     2     3    1
    15     3     4    1
    16     4     7    1
    17     7     8    1
    18     7    10    1
    19    10    11   ar
    20    11    12   ar
    21    12    13   ar
    22    13    14   ar
    23    14    15   ar
    24     7    16    1
    25    16    17   ar
    26    17    18   ar
    27    18    19   ar
    28    19    20   ar
    29    20    21   ar
    30     4     5    1
    31     5     6    1
    32    30    31   ar
    33    31    32   ar
    34    32    27   ar
    35     6     1    1
    36    15    10   ar
    37    21    16   ar
    38     8     9    1
@<TRIPOS>MOLECULE
*****
 35 38 0 0 0
SMALL
GASTEIGER

@<TRIPOS>ATOM
      1 N          63.4446   85.9402   14.9227 N.3     1  UNL1       -0.2727
      2 C          62.7574   84.7016   14.4293 C.3     1  UNL1        0.0722
      3 C          62.4095   84.5650   12.9766 C.3     1  UNL1        0.0204
      4 C          62.7489   85.6670   12.0173 C.3     1  UNL1        0.0353
      5 C          63.4361   86.9058   12.5107 C.3     1  UNL1        0.0204
      6 C          63.7840   87.0423   13.9634 C.3     1  UNL1        0.0722
      7 C          62.4010   85.5305   10.5646 C.3     1  UNL1        0.1256
      8 O          62.9985   84.1547   10.5509 O.3     1  UNL1       -0.3786
      9 H          63.6389   84.0731   11.2749 H       1  UNL1        0.2111
     10 C          62.0531   85.3939    9.1119 C.ar    1  UNL1        0.0056
     11 C          60.6992   85.8145    8.6222 C.ar    1  UNL1       -0.0017
     12 C          60.3513   85.6779    7.1695 C.ar    1  UNL1       -0.0002
     13 C          61.3574   85.1207    6.2065 C.ar    1  UNL1       -0.0000
     14 C          62.7114   84.7000    6.6963 C.ar    1  UNL1       -0.0002
     15 C          63.0593   84.8366    8.1490 C.ar    1  UNL1       -0.0017
     16 C          61.8034   86.9062   10.5784 C.ar    1  UNL1        0.0056
     17 C          62.5045   88.0354    9.8831 C.ar    1  UNL1       -0.0017
     18 C          61.9070   89.4112    9.8969 C.ar    1  UNL1       -0.0002
     19 C          60.6083   89.6578   10.6058 C.ar    1  UNL1       -0.0000
     20 C          59.9073   88.5286   11.3011 C.ar    1  UNL1       -0.0002
     21 C          60.5048   87.1528   11.2873 C.ar    1  UNL1       -0.0017
     22 C          63.7925   86.0768   16.3754 C.3     1  UNL1        0.0725
     23 C          62.8785   86.8273   17.2981 C.3     1  UNL1        0.0254
     24 C          63.0905   88.2932   17.5351 C.3     1  UNL1        0.0706
     25 C          62.7547   89.2831   16.4593 C.2     1  UNL1        0.1731
     26 O          61.3862   89.2881   15.8454 O.2     1  UNL1       -0.2913
     27 C          65.8532   92.2377   15.0736 C.ar    1  UNL1       -0.0222
     28 C          65.5615   91.0164   14.2530 C.ar    1  UNL1       -0.0042
     29 C          64.5287   90.0316   14.7149 C.ar    1  UNL1        0.0025
     30 C          63.7876   90.2680   15.9974 C.ar    1  UNL1        0.0347
     31 C          64.0793   91.4892   16.8180 C.ar    1  UNL1        0.0025
     32 C          65.1121   92.4740   16.3561 C.ar    1  UNL1       -0.0042
     33 C          66.8861   93.2225   14.6117 C.3     1  UNL1        0.0264
     34 C          68.7807   92.3481   16.1596 C.3     1  UNL1        0.0004
     35 C          68.1024   93.4824   15.4501 C.3     1  UNL1        0.0047
@<TRIPOS>BOND
     1    34    35    1
     2    35    33    1
     3    33    27    1
     4    27    28   ar
     5    28    29   ar
     6    29    30   ar
     7    30    25    1
     8    25    26    2
     9    25    24    1
    10    24    23    1
    11    23    22    1
    12    22     1    1
    13     1     2    1
    14     2     3    1
    15     3     4    1
    16     4     7    1
    17     7     8    1
    18     7    10    1
    19    10    11   ar
    20    11    12   ar
    21    12    13   ar
    22    13    14   ar
    23    14    15   ar
    24     7    16    1
    25    16    17   ar
    26    17    18   ar
    27    18    19   ar
    28    19    20   ar
    29    20    21   ar
    30     4     5    1
    31     5     6    1
    32    30    31   ar
    33    31    32   ar
    34    32    27   ar
    35     6     1    1
    36    15    10   ar
    37    21    16   ar
    38     8     9    1
@<TRIPOS>MOLECULE
*****
 35 38 0 0 0
SMALL
GASTEIGER

@<TRIPOS>ATOM
      1 N          63.2622   86.8660   16.1079 N.3     1  UNL1       -0.2727
      2 C          64.0853   86.6671   14.8698 C.3     1  UNL1        0.0722
      3 C          64.5270   87.8528   14.0643 C.3     1  UNL1        0.0204
      4 C          64.1456   89.2375   14.4968 C.3     1  UNL1        0.0353
      5 C          63.3225   89.4365   15.7349 C.3     1  UNL1        0.0204
      6 C          62.8807   88.2508   16.5405 C.3     1  UNL1        0.0722
      7 C          64.5874   90.4233   13.6913 C.3     1  UNL1        0.1256
      8 O          65.6847   90.6859   14.6797 O.3     1  UNL1       -0.3786
      9 H          65.4541   90.2859   15.5328 H       1  UNL1        0.2111
     10 C          65.0291   91.6090   12.8858 C.ar    1  UNL1        0.0056
     11 C          64.7090   91.6828   11.4222 C.ar    1  UNL1       -0.0017
     12 C          65.1508   92.8686   10.6167 C.ar    1  UNL1       -0.0002
     13 C          65.9126   93.9805   11.2748 C.ar    1  UNL1       -0.0000
     14 C          66.2328   93.9068   12.7384 C.ar    1  UNL1       -0.0002
     15 C          65.7910   92.7210   13.5439 C.ar    1  UNL1       -0.0017
     16 C          63.4901   90.1606   12.7029 C.ar    1  UNL1        0.0056
     17 C          63.5002   88.9013   11.8881 C.ar    1  UNL1       -0.0017
     18 C          62.4029   88.6387   10.8997 C.ar    1  UNL1       -0.0002
     19 C          61.2955   89.6353   10.7261 C.ar    1  UNL1       -0.0000
     20 C          61.2853   90.8946   11.5410 C.ar    1  UNL1       -0.0002
     21 C          62.3826   91.1573   12.5294 C.ar    1  UNL1       -0.0017
     22 C          62.8204   85.6803   16.9134 C.3     1  UNL1        0.0725
     23 C          63.0378   84.2927   16.3866 C.3     1  UNL1        0.0254
     24 C          62.2329   83.7981   15.2215 C.3     1  UNL1        0.0706
     25 C          62.8954   83.0033   14.1356 C.2     1  UNL1        0.1731
     26 O          63.4772   81.6551   14.4415 O.2     1  UNL1       -0.2913
     27 C          63.1374   84.6634    9.9600 C.ar    1  UNL1       -0.0222
     28 C          62.3421   85.3833   11.0084 C.ar    1  UNL1       -0.0042
     29 C          62.2614   84.8299   12.4002 C.ar    1  UNL1        0.0025
     30 C          62.9761   83.5567   12.7437 C.ar    1  UNL1        0.0347
     31 C          63.7714   82.8368   11.6953 C.ar    1  UNL1        0.0025
     32 C          63.8521   83.3902   10.3035 C.ar    1  UNL1       -0.0042
     33 C          63.2181   85.2168    8.5681 C.3     1  UNL1        0.0264
     34 C          60.8456   86.0704    7.9415 C.3     1  UNL1        0.0004
     35 C          62.0160   85.1716    7.6722 C.3     1  UNL1        0.0047
@<TRIPOS>BOND
     1    34    35    1
     2    35    33    1
     3    33    27    1
     4    27    28   ar
     5    28    29   ar
     6    29    30   ar
     7    30    25    1
     8    25    26    2
     9    25    24    1
    10    24    23    1
    11    23    22    1
    12    22     1    1
    13     1     2    1
    14     2     3    1
    15     3     4    1
    16     4     7    1
    17     7     8    1
    18     7    10    1
    19    10    11   ar
    20    11    12   ar
    21    12    13   ar
    22    13    14   ar
    23    14    15   ar
    24     7    16    1
    25    16    17   ar
    26    17    18   ar
    27    18    19   ar
    28    19    20   ar
    29    20    21   ar
    30     4     5    1
    31     5     6    1
    32    30    31   ar
    33    31    32   ar
    34    32    27   ar
    35     6     1    1
    36    15    10   ar
    37    21    16   ar
    38     8     9    1
@<TRIPOS>MOLECULE
*****
 35 38 0 0 0
SMALL
GASTEIGER

@<TRIPOS>ATOM
      1 N          59.9732   91.3453    4.8824 N.3     1  UNL1       -0.2727
      2 C          59.3763   92.4915    4.1209 C.3     1  UNL1        0.0722
      3 C          60.1692   93.1702    3.0436 C.3     1  UNL1        0.0204
      4 C          61.5591   92.7028    2.7279 C.3     1  UNL1        0.0353
      5 C          62.1561   91.5566    3.4895 C.3     1  UNL1        0.0204
      6 C          61.3631   90.8779    4.5668 C.3     1  UNL1        0.0722
      7 C          62.3521   93.3816    1.6507 C.3     1  UNL1        0.1256
      8 O          63.5859   93.2855    2.4983 O.3     1  UNL1       -0.3786
      9 H          63.3319   93.2006    3.4306 H       1  UNL1        0.2111
     10 C          63.1451   94.0603    0.5734 C.ar    1  UNL1        0.0056
     11 C          63.1501   93.5023   -0.8189 C.ar    1  UNL1       -0.0017
     12 C          63.9430   94.1810   -1.8961 C.ar    1  UNL1       -0.0002
     13 C          64.7310   95.4178   -1.5811 C.ar    1  UNL1       -0.0000
     14 C          64.7261   95.9760   -0.1888 C.ar    1  UNL1       -0.0002
     15 C          63.9331   95.2972    0.8885 C.ar    1  UNL1       -0.0017
     16 C          61.1183   93.4777    0.8030 C.ar    1  UNL1        0.0056
     17 C          60.5658   92.2504    0.1409 C.ar    1  UNL1       -0.0017
     18 C          59.3320   92.3466   -0.7067 C.ar    1  UNL1       -0.0002
     19 C          58.6507   93.6700   -0.8923 C.ar    1  UNL1       -0.0000
     20 C          59.2033   94.8972   -0.2302 C.ar    1  UNL1       -0.0002
     21 C          60.4371   94.8011    0.6175 C.ar    1  UNL1       -0.0017
     22 C          59.1802   90.6666    5.9597 C.3     1  UNL1        0.0725
     23 C          59.3831   89.2056    6.2328 C.3     1  UNL1        0.0254
     24 C          59.8091   88.7498    7.5969 C.3     1  UNL1        0.0706
     25 C          59.5678   87.3320    8.0232 C.2     1  UNL1        0.1731
     26 O          58.1903   86.7456    7.9319 O.2     1  UNL1       -0.2913
     27 C          62.9766   84.8383    9.5760 C.ar    1  UNL1       -0.0222
     28 C          62.0987   85.5879   10.5337 C.ar    1  UNL1       -0.0042
     29 C          60.9624   86.4192   10.0161 C.ar    1  UNL1        0.0025
     30 C          60.7041   86.5008    8.5408 C.ar    1  UNL1        0.0347
     31 C          61.5820   85.7511    7.5831 C.ar    1  UNL1        0.0025
     32 C          62.7183   84.9199    8.1007 C.ar    1  UNL1       -0.0042
     33 C          64.1129   84.0070   10.0936 C.3     1  UNL1        0.0264
     34 C          63.0437   82.1023   11.5003 C.3     1  UNL1        0.0004
     35 C          63.9119   82.5446   10.3598 C.3     1  UNL1        0.0047
@<TRIPOS>BOND
     1    34    35    1
     2    35    33    1
     3    33    27    1
     4    27    28   ar
     5    28    29   ar
     6    29    30   ar
     7    30    25    1
     8    25    26    2
     9    25    24    1
    10    24    23    1
    11    23    22    1
    12    22     1    1
    13     1     2    1
    14     2     3    1
    15     3     4    1
    16     4     7    1
    17     7     8    1
    18     7    10    1
    19    10    11   ar
    20    11    12   ar
    21    12    13   ar
    22    13    14   ar
    23    14    15   ar
    24     7    16    1
    25    16    17   ar
    26    17    18   ar
    27    18    19   ar
    28    19    20   ar
    29    20    21   ar
    30     4     5    1
    31     5     6    1
    32    30    31   ar
    33    31    32   ar
    34    32    27   ar
    35     6     1    1
    36    15    10   ar
    37    21    16   ar
    38     8     9    1
@<TRIPOS>MOLECULE
*****
 35 38 0 0 0
SMALL
GASTEIGER

@<TRIPOS>ATOM
      1 N          63.5975   87.8476   15.9700 N.3     1  UNL1       -0.2727
      2 C          62.6468   86.9884   16.7496 C.3     1  UNL1        0.0722
      3 C          62.4038   85.5685   16.3313 C.3     1  UNL1        0.0204
      4 C          63.1115   85.0079   15.1335 C.3     1  UNL1        0.0353
      5 C          64.0623   85.8672   14.3539 C.3     1  UNL1        0.0204
      6 C          64.3053   87.2870   14.7721 C.3     1  UNL1        0.0722
      7 C          62.8684   83.5881   14.7152 C.3     1  UNL1        0.1256
      8 O          62.8061   83.1744   16.1557 O.3     1  UNL1       -0.3786
      9 H          63.2804   83.8229   16.6991 H       1  UNL1        0.2111
     10 C          62.6254   82.1682   14.2969 C.ar    1  UNL1        0.0056
     11 C          61.2255   81.6326   14.2388 C.ar    1  UNL1       -0.0017
     12 C          60.9825   80.2128   13.8205 C.ar    1  UNL1       -0.0002
     13 C          62.1393   79.3285   13.4604 C.ar    1  UNL1       -0.0000
     14 C          63.5393   79.8641   13.5186 C.ar    1  UNL1       -0.0002
     15 C          63.7824   81.2839   13.9368 C.ar    1  UNL1       -0.0017
     16 C          62.9308   84.0017   13.2747 C.ar    1  UNL1        0.0056
     17 C          63.9752   83.4167   12.3710 C.ar    1  UNL1       -0.0017
     18 C          64.0376   83.8304   10.9305 C.ar    1  UNL1       -0.0002
     19 C          63.0555   84.8291   10.3938 C.ar    1  UNL1       -0.0000
     20 C          62.0111   85.4141   11.2975 C.ar    1  UNL1       -0.0002
     21 C          61.9487   85.0004   12.7380 C.ar    1  UNL1       -0.0017
     22 C          63.8406   89.2675   16.3883 C.3     1  UNL1        0.0725
     23 C          63.7321   90.3748   15.3822 C.3     1  UNL1        0.0254
     24 C          64.8643   90.6409   14.4349 C.3     1  UNL1        0.0706
     25 C          64.6090   91.3621   13.1447 C.2     1  UNL1        0.1731
     26 O          65.2841   92.6735   12.8723 O.2     1  UNL1       -0.2913
     27 C          61.8175   89.5915   10.0915 C.ar    1  UNL1       -0.0222
     28 C          62.0142   88.9092   11.4127 C.ar    1  UNL1       -0.0042
     29 C          62.9447   89.4994   12.4304 C.ar    1  UNL1        0.0025
     30 C          63.6785   90.7719   12.1270 C.ar    1  UNL1        0.0347
     31 C          63.4818   91.4542   10.8057 C.ar    1  UNL1        0.0025
     32 C          62.5513   90.8640    9.7880 C.ar    1  UNL1       -0.0042
     33 C          60.8870   89.0013    9.0737 C.3     1  UNL1        0.0264
     34 C          60.0113   86.6401    8.4351 C.3     1  UNL1        0.0004
     35 C          60.0865   87.7780    9.4095 C.3     1  UNL1        0.0047
@<TRIPOS>BOND
     1    34    35    1
     2    35    33    1
     3    33    27    1
     4    27    28   ar
     5    28    29   ar
     6    29    30   ar
     7    30    25    1
     8    25    26    2
     9    25    24    1
    10    24    23    1
    11    23    22    1
    12    22     1    1
    13     1     2    1
    14     2     3    1
    15     3     4    1
    16     4     7    1
    17     7     8    1
    18     7    10    1
    19    10    11   ar
    20    11    12   ar
    21    12    13   ar
    22    13    14   ar
    23    14    15   ar
    24     7    16    1
    25    16    17   ar
    26    17    18   ar
    27    18    19   ar
    28    19    20   ar
    29    20    21   ar
    30     4     5    1
    31     5     6    1
    32    30    31   ar
    33    31    32   ar
    34    32    27   ar
    35     6     1    1
    36    15    10   ar
    37    21    16   ar
    38     8     9    1
@<TRIPOS>MOLECULE
*****
 35 38 0 0 0
SMALL
GASTEIGER

@<TRIPOS>ATOM
      1 N          63.3871   86.7140   15.9621 N.3     1  UNL1       -0.2727
      2 C          62.4191   85.6334   16.3432 C.3     1  UNL1        0.0722
      3 C          62.3141   84.3919   15.5079 C.3     1  UNL1        0.0204
      4 C          63.1770   84.2310   14.2916 C.3     1  UNL1        0.0353
      5 C          64.1450   85.3117   13.9105 C.3     1  UNL1        0.0204
      6 C          64.2500   86.5532   14.7457 C.3     1  UNL1        0.0722
      7 C          63.0719   82.9895   13.4563 C.3     1  UNL1        0.1256
      8 O          63.2254   82.1477   14.6883 O.3     1  UNL1       -0.3786
      9 H          63.6711   82.6631   15.3786 H       1  UNL1        0.2111
     10 C          62.9669   81.7480   12.6210 C.ar    1  UNL1        0.0056
     11 C          62.6048   80.4412   13.2621 C.ar    1  UNL1       -0.0017
     12 C          62.4998   79.1997   12.4268 C.ar    1  UNL1       -0.0002
     13 C          62.7568   79.2651   10.9505 C.ar    1  UNL1       -0.0000
     14 C          63.1188   80.5720   10.3094 C.ar    1  UNL1       -0.0002
     15 C          63.2239   81.8135   11.1446 C.ar    1  UNL1       -0.0017
     16 C          62.9184   83.8314   12.2243 C.ar    1  UNL1        0.0056
     17 C          61.7889   84.8131   12.1228 C.ar    1  UNL1       -0.0017
     18 C          61.6354   85.6550   10.8908 C.ar    1  UNL1       -0.0002
     19 C          62.6114   85.5151    9.7604 C.ar    1  UNL1       -0.0000
     20 C          63.7409   84.5333    9.8620 C.ar    1  UNL1       -0.0002
     21 C          63.8944   83.6915   11.0940 C.ar    1  UNL1       -0.0017
     22 C          63.4921   87.9555   16.7974 C.3     1  UNL1        0.0725
     23 C          63.0467   89.2747   16.2394 C.3     1  UNL1        0.0254
     24 C          63.9478   90.0418   15.3175 C.3     1  UNL1        0.0706
     25 C          63.5323   90.2902   13.8978 C.2     1  UNL1        0.1731
     26 O          62.3112   89.6170   13.3450 O.2     1  UNL1       -0.2913
     27 C          65.9494   93.0548   11.2970 C.ar    1  UNL1       -0.0222
     28 C          64.7910   92.2998   10.7155 C.ar    1  UNL1       -0.0042
     29 C          63.9853   91.3783   11.5825 C.ar    1  UNL1        0.0025
     30 C          64.3380   91.2117   13.0309 C.ar    1  UNL1        0.0347
     31 C          65.4964   91.9667   13.6123 C.ar    1  UNL1        0.0025
     32 C          66.3021   92.8882   12.7453 C.ar    1  UNL1       -0.0042
     33 C          66.7551   93.9763   10.4300 C.3     1  UNL1        0.0264
     34 C          68.4043   92.1654    9.5636 C.3     1  UNL1        0.0004
     35 C          67.6101   93.4166    9.3320 C.3     1  UNL1        0.0047
@<TRIPOS>BOND
     1    34    35    1
     2    35    33    1
     3    33    27    1
     4    27    28   ar
     5    28    29   ar
     6    29    30   ar
     7    30    25    1
     8    25    26    2
     9    25    24    1
    10    24    23    1
    11    23    22    1
    12    22     1    1
    13     1     2    1
    14     2     3    1
    15     3     4    1
    16     4     7    1
    17     7     8    1
    18     7    10    1
    19    10    11   ar
    20    11    12   ar
    21    12    13   ar
    22    13    14   ar
    23    14    15   ar
    24     7    16    1
    25    16    17   ar
    26    17    18   ar
    27    18    19   ar
    28    19    20   ar
    29    20    21   ar
    30     4     5    1
    31     5     6    1
    32    30    31   ar
    33    31    32   ar
    34    32    27   ar
    35     6     1    1
    36    15    10   ar
    37    21    16   ar
    38     8     9    1
