@<TRIPOS>MOLECULE
*****
 35 39 0 0 0
SMALL
GASTEIGER

@<TRIPOS>ATOM
      1 N          62.3543   90.8242   12.3981 N.pl3   1  UNL1       -0.2806
      2 H          61.6045   91.4382   12.5712 H       1  UNL1        0.1551
      3 C          60.3201   90.1607    9.9342 C.3     1  UNL1        0.0553
      4 C          61.1584   89.1639   10.6781 C.ar    1  UNL1        0.0935
      5 N          61.2090   87.6871   10.4202 N.ar    1  UNL1       -0.1727
      6 N          62.1753   87.0794   11.3933 N.ar    1  UNL1       -0.2558
      7 C          62.7220   88.1805   12.2527 C.ar    1  UNL1        0.0704
      8 C          63.7215   88.0214   13.3597 C.3     1  UNL1        0.0531
      9 C          62.0935   89.4689   11.8108 C.ar    1  UNL1        0.0792
     10 C          62.5323   85.6257   11.4901 C.3     1  UNL1        0.1076
     11 C          62.4008   84.9067   12.7999 C.3     1  UNL1        0.0417
     12 C          62.7578   83.4529   12.8967 C.3     1  UNL1        0.0742
     13 N          63.2462   82.7183   11.6835 N.3     1  UNL1       -0.2705
     14 C          63.3777   83.4373   10.3737 C.3     1  UNL1        0.0742
     15 C          63.0207   84.8910   10.2770 C.3     1  UNL1        0.0417
     16 C          63.6032   81.2646   11.7803 C.3     1  UNL1        0.1042
     17 C          62.8169   80.3575   12.6797 C.3     1  UNL1        0.1544
     18 O          63.1552   80.2705   14.1384 O.3     1  UNL1       -0.3805
     19 H          64.0364   79.8789   14.2432 H       1  UNL1        0.2105
     20 C          63.7575   91.2440   12.7219 C.ar    1  UNL1        0.2208
     21 N          64.3019   91.0381   14.1043 N.ar    1  UNL1       -0.2111
     22 C          65.7051   91.4579   14.4280 C.ar    1  UNL1        0.1147
     23 C          66.5639   92.0837   13.3693 C.ar    1  UNL1        0.0946
     24 CL         67.9670   92.5035   13.6930 Cl      1  UNL1       -0.0790
     25 C          66.0194   92.2896   11.9868 C.ar    1  UNL1        0.0992
     26 N          64.6163   91.8698   11.6631 N.ar    1  UNL1       -0.2126
     27 C          66.8782   92.9154   10.9280 C.ar    1  UNL1        0.0572
     28 C          68.0836   92.2925   10.2885 C.ar    1  UNL1        0.1235
     29 N          68.6327   93.2661    9.2882 N.ar    1  UNL1       -0.1634
     30 N          67.7666   94.4907    9.3095 N.ar    1  UNL1       -0.2281
     31 C          67.8254   95.7751    8.5370 C.ar    1  UNL1        0.1004
     32 C          66.7997   96.8428    8.7780 C.ar    1  UNL1        0.0207
     33 C          65.7154   96.6260    9.7915 C.ar    1  UNL1        0.0031
     34 C          65.6567   95.3416   10.5640 C.ar    1  UNL1        0.0193
     35 C          66.6823   94.2739   10.3230 C.ar    1  UNL1        0.0858
@<TRIPOS>BOND
     1     3     4    1
     2     4     5   ar
     3     5     6   ar
     4     6    10    1
     5    10    11    1
     6    11    12    1
     7    12    13    1
     8    13    16    1
     9    16    17    1
    10    17    18    1
    11    13    14    1
    12    14    15    1
    13     6     7   ar
    14     7     8    1
    15     7     9   ar
    16     9     1    1
    17     1    20    1
    18    20    21   ar
    19    21    22   ar
    20    22    23   ar
    21    23    24    1
    22    23    25   ar
    23    25    27    1
    24    27    28   ar
    25    28    29   ar
    26    29    30   ar
    27    30    31   ar
    28    31    32   ar
    29    32    33   ar
    30    33    34   ar
    31    34    35   ar
    32    25    26   ar
    33     9     4   ar
    34    26    20   ar
    35    15    10    1
    36    35    27   ar
    37    35    30   ar
    38    18    19    1
    39     1     2    1
@<TRIPOS>MOLECULE
*****
 35 39 0 0 0
SMALL
GASTEIGER

@<TRIPOS>ATOM
      1 N          62.4049   89.8359   13.7970 N.pl3   1  UNL1       -0.2806
      2 H          62.0960   89.6126   14.7047 H       1  UNL1        0.1551
      3 C          64.3487   91.0177   16.1367 C.3     1  UNL1        0.0553
      4 C          64.4060   91.3723   14.6804 C.ar    1  UNL1        0.0935
      5 N          65.3668   92.3323   14.0438 N.ar    1  UNL1       -0.1727
      6 N          65.0672   92.3824   12.5748 N.ar    1  UNL1       -0.2558
      7 C          63.9212   91.4533   12.3035 C.ar    1  UNL1        0.0704
      8 C          63.2940   91.1941   10.9659 C.3     1  UNL1        0.0531
      9 C          63.5125   90.8290   13.6048 C.ar    1  UNL1        0.0792
     10 C          65.7871   93.2152   11.5560 C.3     1  UNL1        0.1076
     11 C          65.7162   94.7119   11.6253 C.3     1  UNL1        0.0417
     12 C          66.4362   95.5449   10.6064 C.3     1  UNL1        0.0742
     13 N          67.2270   94.8810    9.5184 N.3     1  UNL1       -0.2705
     14 C          67.2980   93.3843    9.4492 C.3     1  UNL1        0.0742
     15 C          66.5780   92.5514   10.4680 C.3     1  UNL1        0.0417
     16 C          67.9470   95.7139    8.4996 C.3     1  UNL1        0.1042
     17 C          67.1934   96.7298    7.6933 C.3     1  UNL1        0.1544
     18 O          65.7923   96.4402    7.2428 O.3     1  UNL1       -0.3805
     19 H          65.8016   95.7051    6.6100 H       1  UNL1        0.2105
     20 C          61.7679   89.1831   12.6062 C.ar    1  UNL1        0.2208
     21 N          60.4970   89.7398   12.0362 N.ar    1  UNL1       -0.2111
     22 C          59.8600   89.0870   10.8454 C.ar    1  UNL1        0.1147
     23 C          60.4938   87.8775   10.2245 C.ar    1  UNL1        0.0946
     24 CL         59.8568   87.2247    9.0337 Cl      1  UNL1       -0.0790
     25 C          61.7648   87.3208   10.7946 C.ar    1  UNL1        0.0992
     26 N          62.4018   87.9737   11.9853 N.ar    1  UNL1       -0.2126
     27 C          62.3987   86.1114   10.1738 C.ar    1  UNL1        0.0572
     28 C          62.7063   85.9267    8.7173 C.ar    1  UNL1        0.1235
     29 N          63.3340   84.5755    8.5439 N.ar    1  UNL1       -0.1634
     30 N          63.4143   83.9250    9.8931 N.ar    1  UNL1       -0.2281
     31 C          63.9390   82.5909   10.3346 C.ar    1  UNL1        0.1004
     32 C          63.8858   82.2062   11.7834 C.ar    1  UNL1        0.0207
     33 C          63.3077   83.1555   12.7907 C.ar    1  UNL1        0.0031
     34 C          62.7830   84.4895   12.3493 C.ar    1  UNL1        0.0193
     35 C          62.8362   84.8742   10.9005 C.ar    1  UNL1        0.0858
@<TRIPOS>BOND
     1     3     4    1
     2     4     5   ar
     3     5     6   ar
     4     6    10    1
     5    10    11    1
     6    11    12    1
     7    12    13    1
     8    13    16    1
     9    16    17    1
    10    17    18    1
    11    13    14    1
    12    14    15    1
    13     6     7   ar
    14     7     8    1
    15     7     9   ar
    16     9     1    1
    17     1    20    1
    18    20    21   ar
    19    21    22   ar
    20    22    23   ar
    21    23    24    1
    22    23    25   ar
    23    25    27    1
    24    27    28   ar
    25    28    29   ar
    26    29    30   ar
    27    30    31   ar
    28    31    32   ar
    29    32    33   ar
    30    33    34   ar
    31    34    35   ar
    32    25    26   ar
    33     9     4   ar
    34    26    20   ar
    35    15    10    1
    36    35    27   ar
    37    35    30   ar
    38    18    19    1
    39     1     2    1
@<TRIPOS>MOLECULE
*****
 35 39 0 0 0
SMALL
GASTEIGER

@<TRIPOS>ATOM
      1 N          60.5267   90.1116    9.6866 N.pl3   1  UNL1       -0.2806
      2 H          60.0816   90.8816    9.2643 H       1  UNL1        0.1551
      3 C          59.4093   89.0710   12.5707 C.3     1  UNL1        0.0553
      4 C          60.7004   89.7973   12.3354 C.ar    1  UNL1        0.0935
      5 N          61.7047   90.1728   13.3844 N.ar    1  UNL1       -0.1727
      6 N          62.8391   90.8832   12.7070 N.ar    1  UNL1       -0.2558
      7 C          62.5358   90.9467   11.2394 C.ar    1  UNL1        0.0704
      8 C          63.4021   91.5716   10.1864 C.3     1  UNL1        0.0531
      9 C          61.2141   90.2756   11.0096 C.ar    1  UNL1        0.0792
     10 C          64.0619   91.4334   13.3793 C.3     1  UNL1        0.1076
     11 C          65.1113   92.1352   12.5693 C.3     1  UNL1        0.0417
     12 C          66.3342   92.6855   13.2416 C.3     1  UNL1        0.0742
     13 N          66.5075   92.5339   14.7238 N.3     1  UNL1       -0.2705
     14 C          65.4580   91.8321   15.5338 C.3     1  UNL1        0.0742
     15 C          64.2352   91.2819   14.8615 C.3     1  UNL1        0.0417
     16 C          67.7304   93.0841   15.3961 C.3     1  UNL1        0.1042
     17 C          69.0473   92.3812   15.2494 C.3     1  UNL1        0.1544
     18 O          69.6913   92.2690   13.8994 O.3     1  UNL1       -0.3805
     19 H          69.1442   91.7102   13.3256 H       1  UNL1        0.2105
     20 C          60.5173   88.7745    9.0069 C.ar    1  UNL1        0.2208
     21 N          59.5520   88.5076    7.8902 N.ar    1  UNL1       -0.2111
     22 C          59.5427   87.1705    7.2105 C.ar    1  UNL1        0.1147
     23 C          60.4987   86.1003    7.6474 C.ar    1  UNL1        0.0946
     24 CL         60.4893   84.7632    6.9676 Cl      1  UNL1       -0.0790
     25 C          61.4640   86.3673    8.7641 C.ar    1  UNL1        0.0992
     26 N          61.4733   87.7043    9.4438 N.ar    1  UNL1       -0.2126
     27 C          62.4200   85.2971    9.2010 C.ar    1  UNL1        0.0572
     28 C          63.2478   84.4319    8.2975 C.ar    1  UNL1        0.1235
     29 N          64.0554   83.5044    9.1563 N.ar    1  UNL1       -0.1634
     30 N          63.7267   83.7963   10.5904 N.ar    1  UNL1       -0.2281
     31 C          64.2172   83.1963   11.8747 C.ar    1  UNL1        0.1004
     32 C          63.6970   83.7044   13.1866 C.ar    1  UNL1        0.0207
     33 C          62.6862   84.8124   13.2143 C.ar    1  UNL1        0.0031
     34 C          62.1957   85.4123   11.9300 C.ar    1  UNL1        0.0193
     35 C          62.7160   84.9043   10.6181 C.ar    1  UNL1        0.0858
@<TRIPOS>BOND
     1     3     4    1
     2     4     5   ar
     3     5     6   ar
     4     6    10    1
     5    10    11    1
     6    11    12    1
     7    12    13    1
     8    13    16    1
     9    16    17    1
    10    17    18    1
    11    13    14    1
    12    14    15    1
    13     6     7   ar
    14     7     8    1
    15     7     9   ar
    16     9     1    1
    17     1    20    1
    18    20    21   ar
    19    21    22   ar
    20    22    23   ar
    21    23    24    1
    22    23    25   ar
    23    25    27    1
    24    27    28   ar
    25    28    29   ar
    26    29    30   ar
    27    30    31   ar
    28    31    32   ar
    29    32    33   ar
    30    33    34   ar
    31    34    35   ar
    32    25    26   ar
    33     9     4   ar
    34    26    20   ar
    35    15    10    1
    36    35    27   ar
    37    35    30   ar
    38    18    19    1
    39     1     2    1
@<TRIPOS>MOLECULE
*****
 35 39 0 0 0
SMALL
GASTEIGER

@<TRIPOS>ATOM
      1 N          64.1929   89.4401   15.5664 N.pl3   1  UNL1       -0.2806
      2 H          64.4743   89.8625   16.4100 H       1  UNL1        0.1551
      3 C          61.8118   89.4518   13.3349 C.3     1  UNL1        0.0553
      4 C          63.0842   90.2435   13.2707 C.ar    1  UNL1        0.0935
      5 N          63.4856   91.1795   12.1694 N.ar    1  UNL1       -0.1727
      6 N          64.8282   91.7527   12.5146 N.ar    1  UNL1       -0.2558
      7 C          65.2565   91.1709   13.8290 C.ar    1  UNL1        0.0704
      8 C          66.5377   91.4694   14.5497 C.3     1  UNL1        0.0531
      9 C          64.1787   90.2381   14.2964 C.ar    1  UNL1        0.0792
     10 C          65.6058   92.7352   11.6899 C.3     1  UNL1        0.1076
     11 C          66.2875   92.2848   10.4320 C.3     1  UNL1        0.0417
     12 C          67.0652   93.2673    9.6073 C.3     1  UNL1        0.0742
     13 N          67.1611   94.7001   10.0407 N.3     1  UNL1       -0.2705
     14 C          66.4793   95.1505   11.2986 C.3     1  UNL1        0.0742
     15 C          65.7017   94.1680   12.1232 C.3     1  UNL1        0.0417
     16 C          67.9388   95.6826    9.2160 C.3     1  UNL1        0.1042
     17 C          67.2373   96.5205    8.1884 C.3     1  UNL1        0.1544
     18 O          66.0368   95.9781    7.4710 O.3     1  UNL1       -0.3805
     19 H          66.3034   95.2291    6.9152 H       1  UNL1        0.2105
     20 C          63.7782   87.9987   15.5512 C.ar    1  UNL1        0.2208
     21 N          63.1684   87.3807   16.7744 N.ar    1  UNL1       -0.2111
     22 C          62.7538   85.9393   16.7592 C.ar    1  UNL1        0.1147
     23 C          62.9489   85.1158   15.5207 C.ar    1  UNL1        0.0946
     24 CL         62.5342   83.6743   15.5054 Cl      1  UNL1       -0.0790
     25 C          63.5587   85.7338   14.2974 C.ar    1  UNL1        0.0992
     26 N          63.9733   87.1752   14.3127 N.ar    1  UNL1       -0.2126
     27 C          63.7537   84.9103   13.0589 C.ar    1  UNL1        0.0572
     28 C          64.5113   83.6187   12.9692 C.ar    1  UNL1        0.1235
     29 N          64.4512   83.1440   11.5476 N.ar    1  UNL1       -0.1634
     30 N          63.6566   84.1422   10.7587 N.ar    1  UNL1       -0.2281
     31 C          63.2699   84.1981    9.3105 C.ar    1  UNL1        0.1004
     32 C          62.4521   85.3456    8.7964 C.ar    1  UNL1        0.0207
     33 C          62.0210   86.4372    9.7305 C.ar    1  UNL1        0.0031
     34 C          62.4077   86.3813   11.1787 C.ar    1  UNL1        0.0193
     35 C          63.2255   85.2338   11.6928 C.ar    1  UNL1        0.0858
@<TRIPOS>BOND
     1     3     4    1
     2     4     5   ar
     3     5     6   ar
     4     6    10    1
     5    10    11    1
     6    11    12    1
     7    12    13    1
     8    13    16    1
     9    16    17    1
    10    17    18    1
    11    13    14    1
    12    14    15    1
    13     6     7   ar
    14     7     8    1
    15     7     9   ar
    16     9     1    1
    17     1    20    1
    18    20    21   ar
    19    21    22   ar
    20    22    23   ar
    21    23    24    1
    22    23    25   ar
    23    25    27    1
    24    27    28   ar
    25    28    29   ar
    26    29    30   ar
    27    30    31   ar
    28    31    32   ar
    29    32    33   ar
    30    33    34   ar
    31    34    35   ar
    32    25    26   ar
    33     9     4   ar
    34    26    20   ar
    35    15    10    1
    36    35    27   ar
    37    35    30   ar
    38    18    19    1
    39     1     2    1
@<TRIPOS>MOLECULE
*****
 35 39 0 0 0
SMALL
GASTEIGER

@<TRIPOS>ATOM
      1 N          63.8026   84.7495   16.2136 N.pl3   1  UNL1       -0.2806
      2 H          64.0588   84.3528   17.0774 H       1  UNL1        0.1551
      3 C          62.4318   86.8042   18.3463 C.3     1  UNL1        0.0553
      4 C          63.0837   87.1843   17.0500 C.ar    1  UNL1        0.0935
      5 N          63.2199   88.5757   16.5063 N.ar    1  UNL1       -0.1727
      6 N          63.9343   88.4912   15.1900 N.ar    1  UNL1       -0.2558
      7 C          64.2395   87.0476   14.9201 C.ar    1  UNL1        0.0704
      8 C          64.9463   86.5067   13.7128 C.3     1  UNL1        0.0531
      9 C          63.7138   86.2399   16.0696 C.ar    1  UNL1        0.0792
     10 C          64.2823   89.6473   14.2998 C.3     1  UNL1        0.1076
     11 C          63.4637   89.9224   13.0734 C.3     1  UNL1        0.0417
     12 C          63.8117   91.0786   12.1832 C.3     1  UNL1        0.0742
     13 N          64.9783   91.9594   12.5196 N.3     1  UNL1       -0.2705
     14 C          65.7969   91.6843   13.7461 C.3     1  UNL1        0.0742
     15 C          65.4488   90.5281   14.6361 C.3     1  UNL1        0.0417
     16 C          65.3263   93.1156   11.6294 C.3     1  UNL1        0.1042
     17 C          66.2147   94.2123   12.1373 C.3     1  UNL1        0.1544
     18 O          65.8591   95.6463   11.8777 O.3     1  UNL1       -0.3805
     19 H          65.9091   95.8246   10.9256 H       1  UNL1        0.2105
     20 C          63.5012   83.8634   15.0414 C.ar    1  UNL1        0.2208
     21 N          63.2705   82.3960   15.2502 N.ar    1  UNL1       -0.2111
     22 C          62.9690   81.5100   14.0781 C.ar    1  UNL1        0.1147
     23 C          62.8983   82.0913   12.6971 C.ar    1  UNL1        0.0946
     24 CL         62.5968   81.2052   11.5249 Cl      1  UNL1       -0.0790
     25 C          63.1290   83.5587   12.4883 C.ar    1  UNL1        0.0992
     26 N          63.4304   84.4447   13.6604 N.ar    1  UNL1       -0.2126
     27 C          63.0582   84.1400   11.1073 C.ar    1  UNL1        0.0572
     28 C          63.7888   83.6336    9.8990 C.ar    1  UNL1        0.1235
     29 N          63.4265   84.5104    8.7372 N.ar    1  UNL1       -0.1634
     30 N          62.4720   85.5587    9.2273 N.ar    1  UNL1       -0.2281
     31 C          61.7808   86.6920    8.5290 C.ar    1  UNL1        0.1004
     32 C          60.8619   87.5964    9.2956 C.ar    1  UNL1        0.0207
     33 C          60.6343   87.3675   10.7604 C.ar    1  UNL1        0.0031
     34 C          61.3256   86.2341   11.4587 C.ar    1  UNL1        0.0193
     35 C          62.2444   85.3297   10.6921 C.ar    1  UNL1        0.0858
@<TRIPOS>BOND
     1     3     4    1
     2     4     5   ar
     3     5     6   ar
     4     6    10    1
     5    10    11    1
     6    11    12    1
     7    12    13    1
     8    13    16    1
     9    16    17    1
    10    17    18    1
    11    13    14    1
    12    14    15    1
    13     6     7   ar
    14     7     8    1
    15     7     9   ar
    16     9     1    1
    17     1    20    1
    18    20    21   ar
    19    21    22   ar
    20    22    23   ar
    21    23    24    1
    22    23    25   ar
    23    25    27    1
    24    27    28   ar
    25    28    29   ar
    26    29    30   ar
    27    30    31   ar
    28    31    32   ar
    29    32    33   ar
    30    33    34   ar
    31    34    35   ar
    32    25    26   ar
    33     9     4   ar
    34    26    20   ar
    35    15    10    1
    36    35    27   ar
    37    35    30   ar
    38    18    19    1
    39     1     2    1
@<TRIPOS>MOLECULE
*****
 35 39 0 0 0
SMALL
GASTEIGER

@<TRIPOS>ATOM
      1 N          63.8107   88.5860   16.0242 N.pl3   1  UNL1       -0.2806
      2 H          64.0238   89.0202   16.8817 H       1  UNL1        0.1551
      3 C          62.5875   86.8619   18.5103 C.3     1  UNL1        0.0553
      4 C          62.8771   86.3406   17.1340 C.ar    1  UNL1        0.0935
      5 N          62.6554   84.9353   16.6587 N.ar    1  UNL1       -0.1727
      6 N          63.0806   84.8592   15.2221 N.ar    1  UNL1       -0.2558
      7 C          63.5652   86.2175   14.8096 C.ar    1  UNL1        0.0704
      8 C          64.0843   86.5941   13.4537 C.3     1  UNL1        0.0531
      9 C          63.4394   87.1331   15.9912 C.ar    1  UNL1        0.0792
     10 C          63.0301   83.6391   14.3511 C.3     1  UNL1        0.1076
     11 C          61.9803   82.5935   14.5850 C.3     1  UNL1        0.0417
     12 C          61.9298   81.3733   13.7140 C.3     1  UNL1        0.0742
     13 N          62.9291   81.1988   12.6091 N.3     1  UNL1       -0.2705
     14 C          63.9790   82.2443   12.3752 C.3     1  UNL1        0.0742
     15 C          64.0294   83.4645   13.2462 C.3     1  UNL1        0.0417
     16 C          62.8786   79.9786   11.7380 C.3     1  UNL1        0.1042
     17 C          63.0573   80.1083   10.2544 C.3     1  UNL1        0.1544
     18 O          62.7306   78.9526    9.3558 O.3     1  UNL1       -0.3805
     19 H          63.3459   78.2233    9.5302 H       1  UNL1        0.2105
     20 C          63.8574   89.3774   14.7508 C.ar    1  UNL1        0.2208
     21 N          64.9916   90.3260   14.4985 N.ar    1  UNL1       -0.2111
     22 C          65.0383   91.1174   13.2251 C.ar    1  UNL1        0.1147
     23 C          63.9507   90.9602   12.2041 C.ar    1  UNL1        0.0946
     24 CL         63.9974   91.7516   10.9307 Cl      1  UNL1       -0.0790
     25 C          62.8164   90.0116   12.4565 C.ar    1  UNL1        0.0992
     26 N          62.7698   89.2202   13.7298 N.ar    1  UNL1       -0.2126
     27 C          61.7288   89.8544   11.4355 C.ar    1  UNL1        0.0572
     28 C          60.6251   90.8335   11.1651 C.ar    1  UNL1        0.1235
     29 N          59.7682   90.2747   10.0681 N.ar    1  UNL1       -0.1634
     30 N          60.3423   88.9503    9.6604 N.ar    1  UNL1       -0.2281
     31 C          59.9183   87.9473    8.6289 C.ar    1  UNL1        0.1004
     32 C          60.7060   86.6845    8.4425 C.ar    1  UNL1        0.0207
     33 C          61.9178   86.4247    9.2876 C.ar    1  UNL1        0.0031
     34 C          62.3418   87.4277   10.3191 C.ar    1  UNL1        0.0193
     35 C          61.5541   88.6905   10.5055 C.ar    1  UNL1        0.0858
@<TRIPOS>BOND
     1     3     4    1
     2     4     5   ar
     3     5     6   ar
     4     6    10    1
     5    10    11    1
     6    11    12    1
     7    12    13    1
     8    13    16    1
     9    16    17    1
    10    17    18    1
    11    13    14    1
    12    14    15    1
    13     6     7   ar
    14     7     8    1
    15     7     9   ar
    16     9     1    1
    17     1    20    1
    18    20    21   ar
    19    21    22   ar
    20    22    23   ar
    21    23    24    1
    22    23    25   ar
    23    25    27    1
    24    27    28   ar
    25    28    29   ar
    26    29    30   ar
    27    30    31   ar
    28    31    32   ar
    29    32    33   ar
    30    33    34   ar
    31    34    35   ar
    32    25    26   ar
    33     9     4   ar
    34    26    20   ar
    35    15    10    1
    36    35    27   ar
    37    35    30   ar
    38    18    19    1
    39     1     2    1
@<TRIPOS>MOLECULE
*****
 35 39 0 0 0
SMALL
GASTEIGER

@<TRIPOS>ATOM
      1 N          61.4142   89.7369   12.2251 N.pl3   1  UNL1       -0.2806
      2 H          60.7007   89.9636   12.8646 H       1  UNL1        0.1551
      3 C          62.7341   91.3720    9.7284 C.3     1  UNL1        0.0553
      4 C          63.3183   91.2408   11.1037 C.ar    1  UNL1        0.0935
      5 N          64.6118   91.8382   11.5728 N.ar    1  UNL1       -0.1727
      6 N          64.8045   91.4558   13.0105 N.ar    1  UNL1       -0.2558
      7 C          63.6301   90.6222   13.4298 C.ar    1  UNL1        0.0704
      8 C          63.4125   90.0261   14.7889 C.3     1  UNL1        0.0531
      9 C          62.7116   90.4892   12.2514 C.ar    1  UNL1        0.0792
     10 C          65.9674   91.8397   13.8766 C.3     1  UNL1        0.1076
     11 C          67.3615   91.7905   13.3254 C.3     1  UNL1        0.0417
     12 C          68.5245   92.1744   14.1916 C.3     1  UNL1        0.0742
     13 N          68.2932   92.6075   15.6090 N.3     1  UNL1       -0.2705
     14 C          66.8990   92.6567   16.1602 C.3     1  UNL1        0.0742
     15 C          65.7361   92.2728   15.2939 C.3     1  UNL1        0.0417
     16 C          69.4561   92.9914   16.4752 C.3     1  UNL1        0.1042
     17 C          70.0772   94.3499   16.3381 C.3     1  UNL1        0.1544
     18 O          69.2162   95.5770   16.3915 O.3     1  UNL1       -0.3805
     19 H          68.6246   95.5906   15.6229 H       1  UNL1        0.2105
     20 C          61.2037   88.6393   11.2247 C.ar    1  UNL1        0.2208
     21 N          60.1722   88.7947   10.1468 N.ar    1  UNL1       -0.2111
     22 C          59.9617   87.6971    9.1463 C.ar    1  UNL1        0.1147
     23 C          60.7827   86.4441    9.2238 C.ar    1  UNL1        0.0946
     24 CL         60.5722   85.3465    8.2233 Cl      1  UNL1       -0.0790
     25 C          61.8142   86.2887   10.3018 C.ar    1  UNL1        0.0992
     26 N          62.0246   87.3863   11.3021 N.ar    1  UNL1       -0.2126
     27 C          62.6352   85.0357   10.3792 C.ar    1  UNL1        0.0572
     28 C          63.3598   84.3845    9.2387 C.ar    1  UNL1        0.1235
     29 N          64.0481   83.1603    9.7654 N.ar    1  UNL1       -0.1634
     30 N          63.7489   83.0549   11.2315 N.ar    1  UNL1       -0.2281
     31 C          64.1587   82.0532   12.2700 C.ar    1  UNL1        0.1004
     32 C          63.6953   82.2106   13.6879 C.ar    1  UNL1        0.0207
     33 C          62.8220   83.3697   14.0672 C.ar    1  UNL1        0.0031
     34 C          62.4122   84.3714   13.0287 C.ar    1  UNL1        0.0193
     35 C          62.8756   84.2140   11.6108 C.ar    1  UNL1        0.0858
@<TRIPOS>BOND
     1     3     4    1
     2     4     5   ar
     3     5     6   ar
     4     6    10    1
     5    10    11    1
     6    11    12    1
     7    12    13    1
     8    13    16    1
     9    16    17    1
    10    17    18    1
    11    13    14    1
    12    14    15    1
    13     6     7   ar
    14     7     8    1
    15     7     9   ar
    16     9     1    1
    17     1    20    1
    18    20    21   ar
    19    21    22   ar
    20    22    23   ar
    21    23    24    1
    22    23    25   ar
    23    25    27    1
    24    27    28   ar
    25    28    29   ar
    26    29    30   ar
    27    30    31   ar
    28    31    32   ar
    29    32    33   ar
    30    33    34   ar
    31    34    35   ar
    32    25    26   ar
    33     9     4   ar
    34    26    20   ar
    35    15    10    1
    36    35    27   ar
    37    35    30   ar
    38    18    19    1
    39     1     2    1
@<TRIPOS>MOLECULE
*****
 35 39 0 0 0
SMALL
GASTEIGER

@<TRIPOS>ATOM
      1 N          61.0899   87.7179   10.9781 N.pl3   1  UNL1       -0.2806
      2 H          60.1072   87.6584   10.9859 H       1  UNL1        0.1551
      3 C          60.3281   90.5426    9.5324 C.3     1  UNL1        0.0553
      4 C          61.4129   90.3362   10.5475 C.ar    1  UNL1        0.0935
      5 N          62.3381   91.3918   11.0764 N.ar    1  UNL1       -0.1727
      6 N          63.2601   90.7459   12.0678 N.ar    1  UNL1       -0.2558
      7 C          62.9047   89.2910   12.1517 C.ar    1  UNL1        0.0704
      8 C          63.5734   88.2688   13.0222 C.3     1  UNL1        0.0531
      9 C          61.7631   89.0377   11.2121 C.ar    1  UNL1        0.0792
     10 C          64.3466   91.4340   12.8398 C.3     1  UNL1        0.1076
     11 C          64.5283   91.1435   14.3001 C.3     1  UNL1        0.0417
     12 C          65.6148   91.8317   15.0722 C.3     1  UNL1        0.0742
     13 N          66.5196   92.8102   14.3837 N.3     1  UNL1       -0.2705
     14 C          66.3379   93.1006   12.9234 C.3     1  UNL1        0.0742
     15 C          65.2513   92.4124   12.1514 C.3     1  UNL1        0.0417
     16 C          67.6062   93.4983   15.1558 C.3     1  UNL1        0.1042
     17 C          68.9479   92.8449   15.3071 C.3     1  UNL1        0.1544
     18 O          69.6755   92.3373   14.0977 O.3     1  UNL1       -0.3805
     19 H          69.1794   91.6008   13.7073 H       1  UNL1        0.2105
     20 C          61.9137   86.4888   10.7322 C.ar    1  UNL1        0.2208
     21 N          62.3735   86.1596    9.3429 N.ar    1  UNL1       -0.2111
     22 C          63.1974   84.9305    9.0970 C.ar    1  UNL1        0.1147
     23 C          63.5615   84.0306   10.2405 C.ar    1  UNL1        0.0946
     24 CL         64.3854   82.8014    9.9946 Cl      1  UNL1       -0.0790
     25 C          63.1017   84.3598   11.6299 C.ar    1  UNL1        0.0992
     26 N          62.2779   85.5888   11.8757 N.ar    1  UNL1       -0.2126
     27 C          63.4658   83.4598   12.7733 C.ar    1  UNL1        0.0572
     28 C          64.2107   83.8641   14.0110 C.ar    1  UNL1        0.1235
     29 N          64.3542   82.6517   14.8824 N.ar    1  UNL1       -0.1634
     30 N          63.6981   81.4980   14.1834 N.ar    1  UNL1       -0.2281
     31 C          63.5297   80.0573   14.5653 C.ar    1  UNL1        0.1004
     32 C          62.8123   79.1161   13.6438 C.ar    1  UNL1        0.0207
     33 C          62.2632   79.6155   12.3403 C.ar    1  UNL1        0.0031
     34 C          62.4316   81.0562   11.9583 C.ar    1  UNL1        0.0193
     35 C          63.1491   81.9975   12.8799 C.ar    1  UNL1        0.0858
@<TRIPOS>BOND
     1     3     4    1
     2     4     5   ar
     3     5     6   ar
     4     6    10    1
     5    10    11    1
     6    11    12    1
     7    12    13    1
     8    13    16    1
     9    16    17    1
    10    17    18    1
    11    13    14    1
    12    14    15    1
    13     6     7   ar
    14     7     8    1
    15     7     9   ar
    16     9     1    1
    17     1    20    1
    18    20    21   ar
    19    21    22   ar
    20    22    23   ar
    21    23    24    1
    22    23    25   ar
    23    25    27    1
    24    27    28   ar
    25    28    29   ar
    26    29    30   ar
    27    30    31   ar
    28    31    32   ar
    29    32    33   ar
    30    33    34   ar
    31    34    35   ar
    32    25    26   ar
    33     9     4   ar
    34    26    20   ar
    35    15    10    1
    36    35    27   ar
    37    35    30   ar
    38    18    19    1
    39     1     2    1
@<TRIPOS>MOLECULE
*****
 35 39 0 0 0
SMALL
GASTEIGER

@<TRIPOS>ATOM
      1 N          60.8711   87.0383    9.3963 N.pl3   1  UNL1       -0.2806
      2 H          59.9707   86.9170    9.0171 H       1  UNL1        0.1551
      3 C          59.9083   89.8026    7.9536 C.3     1  UNL1        0.0553
      4 C          60.9319   89.6873    9.0440 C.ar    1  UNL1        0.0935
      5 N          61.6926   90.8224    9.6628 N.ar    1  UNL1       -0.1727
      6 N          62.6053   90.2533   10.7084 N.ar    1  UNL1       -0.2558
      7 C          62.4087   88.7666   10.7358 C.ar    1  UNL1        0.0704
      8 C          63.1211   87.7994   11.6341 C.3     1  UNL1        0.0531
      9 C          61.3744   88.4167    9.7072 C.ar    1  UNL1        0.0792
     10 C          63.5490   91.0340   11.5745 C.3     1  UNL1        0.1076
     11 C          63.5526   90.8231   13.0596 C.3     1  UNL1        0.0417
     12 C          64.4962   91.6038   13.9257 C.3     1  UNL1        0.0742
     13 N          65.4363   92.5953   13.3066 N.3     1  UNL1       -0.2705
     14 C          65.4327   92.8062   11.8215 C.3     1  UNL1        0.0742
     15 C          64.4890   92.0254   10.9555 C.3     1  UNL1        0.0417
     16 C          66.3799   93.3759   14.1728 C.3     1  UNL1        0.1042
     17 C          66.8305   92.8131   15.4881 C.3     1  UNL1        0.1544
     18 O          66.0088   93.0405   16.7222 O.3     1  UNL1       -0.3805
     19 H          66.0092   93.9855   16.9413 H       1  UNL1        0.2105
     20 C          61.7396   85.8448    9.6629 C.ar    1  UNL1        0.2208
     21 N          62.5338   85.2311    8.5482 N.ar    1  UNL1       -0.2111
     22 C          63.4023   84.0375    8.8149 C.ar    1  UNL1        0.1147
     23 C          63.4766   83.4577   10.1963 C.ar    1  UNL1        0.0946
     24 CL         64.3451   82.2641   10.4630 Cl      1  UNL1       -0.0790
     25 C          62.6824   84.0714   11.3111 C.ar    1  UNL1        0.0992
     26 N          61.8139   85.2649   11.0443 N.ar    1  UNL1       -0.2126
     27 C          62.7567   83.4916   12.6925 C.ar    1  UNL1        0.0572
     28 C          62.4023   82.0863   13.0790 C.ar    1  UNL1        0.1235
     29 N          62.6251   81.9415   14.5553 N.ar    1  UNL1       -0.1634
     30 N          63.1171   83.2573   15.0811 N.ar    1  UNL1       -0.2281
     31 C          63.5016   83.7069   16.4595 C.ar    1  UNL1        0.1004
     32 C          63.9674   85.1145   16.6866 C.ar    1  UNL1        0.0207
     33 C          64.0488   86.0725   15.5353 C.ar    1  UNL1        0.0031
     34 C          63.6643   85.6229   14.1569 C.ar    1  UNL1        0.0193
     35 C          63.1985   84.2153   13.9298 C.ar    1  UNL1        0.0858
@<TRIPOS>BOND
     1     3     4    1
     2     4     5   ar
     3     5     6   ar
     4     6    10    1
     5    10    11    1
     6    11    12    1
     7    12    13    1
     8    13    16    1
     9    16    17    1
    10    17    18    1
    11    13    14    1
    12    14    15    1
    13     6     7   ar
    14     7     8    1
    15     7     9   ar
    16     9     1    1
    17     1    20    1
    18    20    21   ar
    19    21    22   ar
    20    22    23   ar
    21    23    24    1
    22    23    25   ar
    23    25    27    1
    24    27    28   ar
    25    28    29   ar
    26    29    30   ar
    27    30    31   ar
    28    31    32   ar
    29    32    33   ar
    30    33    34   ar
    31    34    35   ar
    32    25    26   ar
    33     9     4   ar
    34    26    20   ar
    35    15    10    1
    36    35    27   ar
    37    35    30   ar
    38    18    19    1
    39     1     2    1
