@<TRIPOS>MOLECULE
*****
 22 25 0 0 0
SMALL
GASTEIGER

@<TRIPOS>ATOM
      1 O          59.0280   86.2485    7.1045 O.2     1  UNL1       -0.2748
      2 C          59.9576   86.8239    8.1315 C.2     1  UNL1        0.2264
      3 C          61.1696   86.0521    8.5622 C.3     1  UNL1        0.0901
      4 C          62.0993   86.6275    9.5891 C.3     1  UNL1        0.0372
      5 C          61.8170   87.9746   10.1854 C.ar    1  UNL1       -0.0082
      6 C          62.7466   88.5500   11.2123 C.ar    1  UNL1       -0.0030
      7 C          62.4644   89.8971   11.8086 C.ar    1  UNL1        0.0013
      8 C          61.2524   90.6689   11.3779 C.ar    1  UNL1        0.0013
      9 C          60.3227   90.0936   10.3509 C.ar    1  UNL1        0.0144
     10 C          60.6050   88.7464    9.7547 C.ar    1  UNL1        0.0463
     11 N          59.6753   88.1710    8.7277 N.am    1  UNL1       -0.2842
     12 H          58.8799   88.6775    8.4450 H       1  UNL1        0.1548
     13 C          63.3940   90.4725   12.8355 C.ar    1  UNL1        0.0192
     14 C          63.2911   90.0382   14.2675 C.ar    1  UNL1        0.0988
     15 N          64.2208   90.6135   15.2945 N.ar    1  UNL1       -0.2423
     16 C          65.2534   91.6233   14.8894 C.ar    1  UNL1        0.0988
     17 C          65.3563   92.0577   13.4574 C.ar    1  UNL1        0.0192
     18 C          66.3889   93.0675   13.0523 C.ar    1  UNL1        0.0015
     19 C          66.4919   93.5019   11.6203 C.ar    1  UNL1        0.0000
     20 C          65.5622   92.9265   10.5933 C.ar    1  UNL1        0.0000
     21 C          64.5296   91.9167   10.9984 C.ar    1  UNL1        0.0001
     22 C          64.4267   91.4823   12.4304 C.ar    1  UNL1        0.0030
@<TRIPOS>BOND
     1     1     2    2
     2     2     3    1
     3     3     4    1
     4     4     5    1
     5     5     6   ar
     6     6     7   ar
     7     7    13    1
     8    13    14   ar
     9    14    15   ar
    10    15    16   ar
    11    16    17   ar
    12    17    18   ar
    13    18    19   ar
    14    19    20   ar
    15    20    21   ar
    16    21    22   ar
    17     7     8   ar
    18     8     9   ar
    19     9    10   ar
    20    10    11    1
    21    11     2   am
    22    10     5   ar
    23    22    13   ar
    24    22    17   ar
    25    11    12    1
@<TRIPOS>MOLECULE
*****
 22 25 0 0 0
SMALL
GASTEIGER

@<TRIPOS>ATOM
      1 O          63.8692   79.9527   14.1886 O.2     1  UNL1       -0.2748
      2 C          63.4670   81.3340   13.7639 C.2     1  UNL1        0.2264
      3 C          62.8692   82.2811   14.7616 C.3     1  UNL1        0.0901
      4 C          62.4670   83.6624   14.3369 C.3     1  UNL1        0.0372
      5 C          62.6626   84.0965   12.9145 C.ar    1  UNL1       -0.0082
      6 C          62.2603   85.4777   12.4898 C.ar    1  UNL1       -0.0030
      7 C          62.4560   85.9118   11.0675 C.ar    1  UNL1        0.0013
      8 C          63.0538   84.9647   10.0697 C.ar    1  UNL1        0.0013
      9 C          63.4560   83.5834   10.4943 C.ar    1  UNL1        0.0144
     10 C          63.2604   83.1493   11.9168 C.ar    1  UNL1        0.0463
     11 N          63.6626   81.7681   12.3415 N.am    1  UNL1       -0.2842
     12 H          64.0549   81.1464   11.6866 H       1  UNL1        0.1548
     13 C          62.0537   87.2931   10.6428 C.ar    1  UNL1        0.0192
     14 C          62.6389   88.4899   11.3321 C.ar    1  UNL1        0.0988
     15 N          62.2366   89.8712   10.9075 N.ar    1  UNL1       -0.2423
     16 C          61.2493   90.0556    9.7934 C.ar    1  UNL1        0.0988
     17 C          60.6642   88.8588    9.1040 C.ar    1  UNL1        0.0192
     18 C          59.6768   89.0432    7.9899 C.ar    1  UNL1        0.0015
     19 C          59.0917   87.8464    7.3005 C.ar    1  UNL1        0.0000
     20 C          59.4939   86.4651    7.7252 C.ar    1  UNL1        0.0000
     21 C          60.4813   86.2807    8.8393 C.ar    1  UNL1        0.0001
     22 C          61.0664   87.4775    9.5287 C.ar    1  UNL1        0.0030
@<TRIPOS>BOND
     1     1     2    2
     2     2     3    1
     3     3     4    1
     4     4     5    1
     5     5     6   ar
     6     6     7   ar
     7     7    13    1
     8    13    14   ar
     9    14    15   ar
    10    15    16   ar
    11    16    17   ar
    12    17    18   ar
    13    18    19   ar
    14    19    20   ar
    15    20    21   ar
    16    21    22   ar
    17     7     8   ar
    18     8     9   ar
    19     9    10   ar
    20    10    11    1
    21    11     2   am
    22    10     5   ar
    23    22    13   ar
    24    22    17   ar
    25    11    12    1
@<TRIPOS>MOLECULE
*****
 22 25 0 0 0
SMALL
GASTEIGER

@<TRIPOS>ATOM
      1 O          64.4619   80.2646   14.3547 O.2     1  UNL1       -0.2748
      2 C          63.8415   81.4900   13.7515 C.2     1  UNL1        0.2264
      3 C          62.9422   82.3600   14.5787 C.3     1  UNL1        0.0901
      4 C          62.3219   83.5853   13.9756 C.3     1  UNL1        0.0372
      5 C          62.6008   83.9406   12.5452 C.ar    1  UNL1       -0.0082
      6 C          61.9804   85.1659   11.9421 C.ar    1  UNL1       -0.0030
      7 C          62.2594   85.5211   10.5117 C.ar    1  UNL1        0.0013
      8 C          63.1587   84.6511    9.6844 C.ar    1  UNL1        0.0013
      9 C          63.7790   83.4258   10.2876 C.ar    1  UNL1        0.0144
     10 C          63.5001   83.0705   11.7180 C.ar    1  UNL1        0.0463
     11 N          64.1204   81.8452   12.3212 N.am    1  UNL1       -0.2842
     12 H          64.7107   81.2742   11.7782 H       1  UNL1        0.1548
     13 C          61.6390   86.7464    9.9085 C.ar    1  UNL1        0.0192
     14 C          60.7013   86.6170    8.7450 C.ar    1  UNL1        0.0988
     15 N          60.0809   87.8424    8.1419 N.ar    1  UNL1       -0.2423
     16 C          60.3983   89.1970    8.7022 C.ar    1  UNL1        0.0988
     17 C          61.3361   89.3265    9.8658 C.ar    1  UNL1        0.0192
     18 C          61.6535   90.6811   10.4262 C.ar    1  UNL1        0.0015
     19 C          62.5913   90.8106   11.5898 C.ar    1  UNL1        0.0000
     20 C          63.2117   89.5853   12.1929 C.ar    1  UNL1        0.0000
     21 C          62.8942   88.2305   11.6325 C.ar    1  UNL1        0.0001
     22 C          61.9565   88.1012   10.4690 C.ar    1  UNL1        0.0030
@<TRIPOS>BOND
     1     1     2    2
     2     2     3    1
     3     3     4    1
     4     4     5    1
     5     5     6   ar
     6     6     7   ar
     7     7    13    1
     8    13    14   ar
     9    14    15   ar
    10    15    16   ar
    11    16    17   ar
    12    17    18   ar
    13    18    19   ar
    14    19    20   ar
    15    20    21   ar
    16    21    22   ar
    17     7     8   ar
    18     8     9   ar
    19     9    10   ar
    20    10    11    1
    21    11     2   am
    22    10     5   ar
    23    22    13   ar
    24    22    17   ar
    25    11    12    1
@<TRIPOS>MOLECULE
*****
 22 25 0 0 0
SMALL
GASTEIGER

@<TRIPOS>ATOM
      1 O          63.1754   80.1099   14.1976 O.2     1  UNL1       -0.2748
      2 C          63.2248   81.5713   13.8631 C.2     1  UNL1        0.2264
      3 C          62.8075   82.0437   12.5019 C.3     1  UNL1        0.0901
      4 C          62.8570   83.5051   12.1674 C.3     1  UNL1        0.0372
      5 C          63.3237   84.4941   13.1941 C.ar    1  UNL1       -0.0082
      6 C          63.3732   85.9555   12.8596 C.ar    1  UNL1       -0.0030
      7 C          63.8399   86.9445   13.8862 C.ar    1  UNL1        0.0013
      8 C          64.2572   86.4721   15.2474 C.ar    1  UNL1        0.0013
      9 C          64.2078   85.0107   15.5819 C.ar    1  UNL1        0.0144
     10 C          63.7410   84.0217   14.5552 C.ar    1  UNL1        0.0463
     11 N          63.6916   82.5603   14.8897 N.am    1  UNL1       -0.2842
     12 H          63.9654   82.2503   15.7830 H       1  UNL1        0.1548
     13 C          63.8893   88.4059   13.5517 C.ar    1  UNL1        0.0192
     14 C          64.5887   89.3625   14.4713 C.ar    1  UNL1        0.0988
     15 N          64.6381   90.8239   14.1368 N.ar    1  UNL1       -0.2423
     16 C          63.9882   91.3287   12.8827 C.ar    1  UNL1        0.0988
     17 C          63.2889   90.3720   11.9630 C.ar    1  UNL1        0.0192
     18 C          62.6390   90.8768   10.7089 C.ar    1  UNL1        0.0015
     19 C          61.9396   89.9201    9.7892 C.ar    1  UNL1        0.0000
     20 C          61.8901   88.4587   10.1237 C.ar    1  UNL1        0.0000
     21 C          62.5401   87.9540   11.3779 C.ar    1  UNL1        0.0001
     22 C          63.2394   88.9106   12.2975 C.ar    1  UNL1        0.0030
@<TRIPOS>BOND
     1     1     2    2
     2     2     3    1
     3     3     4    1
     4     4     5    1
     5     5     6   ar
     6     6     7   ar
     7     7    13    1
     8    13    14   ar
     9    14    15   ar
    10    15    16   ar
    11    16    17   ar
    12    17    18   ar
    13    18    19   ar
    14    19    20   ar
    15    20    21   ar
    16    21    22   ar
    17     7     8   ar
    18     8     9   ar
    19     9    10   ar
    20    10    11    1
    21    11     2   am
    22    10     5   ar
    23    22    13   ar
    24    22    17   ar
    25    11    12    1
@<TRIPOS>MOLECULE
*****
 22 25 0 0 0
SMALL
GASTEIGER

@<TRIPOS>ATOM
      1 O          63.7308   92.5984   16.8744 O.2     1  UNL1       -0.2748
      2 C          63.8374   91.2326   16.2636 C.2     1  UNL1        0.2264
      3 C          64.4931   91.0583   14.9259 C.3     1  UNL1        0.0901
      4 C          64.5997   89.6924   14.3151 C.3     1  UNL1        0.0372
      5 C          64.0504   88.5008   15.0421 C.ar    1  UNL1       -0.0082
      6 C          64.1569   87.1350   14.4313 C.ar    1  UNL1       -0.0030
      7 C          63.6077   85.9434   15.1582 C.ar    1  UNL1        0.0013
      8 C          62.9518   86.1177   16.4960 C.ar    1  UNL1        0.0013
      9 C          62.8453   87.4836   17.1068 C.ar    1  UNL1        0.0144
     10 C          63.3946   88.6752   16.3798 C.ar    1  UNL1        0.0463
     11 N          63.2881   90.0410   16.9905 N.am    1  UNL1       -0.2842
     12 H          62.8577   90.1554   17.8685 H       1  UNL1        0.1548
     13 C          63.7142   84.5775   14.5474 C.ar    1  UNL1        0.0192
     14 C          64.1159   83.4065   15.3943 C.ar    1  UNL1        0.0988
     15 N          64.2224   82.0406   14.7835 N.ar    1  UNL1       -0.2423
     16 C          63.9273   81.8458   13.3259 C.ar    1  UNL1        0.0988
     17 C          63.5255   83.0169   12.4789 C.ar    1  UNL1        0.0192
     18 C          63.2304   82.8220   11.0212 C.ar    1  UNL1        0.0015
     19 C          62.8287   83.9931   10.1742 C.ar    1  UNL1        0.0000
     20 C          62.7222   85.3590   10.7850 C.ar    1  UNL1        0.0000
     21 C          63.0173   85.5538   12.2428 C.ar    1  UNL1        0.0001
     22 C          63.4190   84.3827   13.0897 C.ar    1  UNL1        0.0030
@<TRIPOS>BOND
     1     1     2    2
     2     2     3    1
     3     3     4    1
     4     4     5    1
     5     5     6   ar
     6     6     7   ar
     7     7    13    1
     8    13    14   ar
     9    14    15   ar
    10    15    16   ar
    11    16    17   ar
    12    17    18   ar
    13    18    19   ar
    14    19    20   ar
    15    20    21   ar
    16    21    22   ar
    17     7     8   ar
    18     8     9   ar
    19     9    10   ar
    20    10    11    1
    21    11     2   am
    22    10     5   ar
    23    22    13   ar
    24    22    17   ar
    25    11    12    1
@<TRIPOS>MOLECULE
*****
 22 25 0 0 0
SMALL
GASTEIGER

@<TRIPOS>ATOM
      1 O          67.8034   93.8441   15.9756 O.2     1  UNL1       -0.2748
      2 C          66.8890   93.2083   14.9707 C.2     1  UNL1        0.2264
      3 C          66.7094   93.8334   13.6191 C.3     1  UNL1        0.0901
      4 C          65.7950   93.1976   12.6143 C.3     1  UNL1        0.0372
      5 C          65.0602   91.9368   12.9611 C.ar    1  UNL1       -0.0082
      6 C          64.1458   91.3010   11.9563 C.ar    1  UNL1       -0.0030
      7 C          63.4110   90.0402   12.3031 C.ar    1  UNL1        0.0013
      8 C          63.5906   89.4151   13.6548 C.ar    1  UNL1        0.0013
      9 C          64.5050   90.0508   14.6596 C.ar    1  UNL1        0.0144
     10 C          65.2398   91.3117   14.3127 C.ar    1  UNL1        0.0463
     11 N          66.1542   91.9475   15.3176 N.am    1  UNL1       -0.2842
     12 H          66.2721   91.5372   16.2047 H       1  UNL1        0.1548
     13 C          62.4966   89.4044   11.2983 C.ar    1  UNL1        0.0192
     14 C          61.7239   90.2612   10.3398 C.ar    1  UNL1        0.0988
     15 N          60.8095   89.6254    9.3349 N.ar    1  UNL1       -0.2423
     16 C          60.6678   88.1329    9.2887 C.ar    1  UNL1        0.0988
     17 C          61.4405   87.2760   10.2472 C.ar    1  UNL1        0.0192
     18 C          61.2988   85.7835   10.2009 C.ar    1  UNL1        0.0015
     19 C          62.0715   84.9266   11.1595 C.ar    1  UNL1        0.0000
     20 C          62.9859   85.5624   12.1643 C.ar    1  UNL1        0.0000
     21 C          63.1276   87.0550   12.2106 C.ar    1  UNL1        0.0001
     22 C          62.3549   87.9118   11.2520 C.ar    1  UNL1        0.0030
@<TRIPOS>BOND
     1     1     2    2
     2     2     3    1
     3     3     4    1
     4     4     5    1
     5     5     6   ar
     6     6     7   ar
     7     7    13    1
     8    13    14   ar
     9    14    15   ar
    10    15    16   ar
    11    16    17   ar
    12    17    18   ar
    13    18    19   ar
    14    19    20   ar
    15    20    21   ar
    16    21    22   ar
    17     7     8   ar
    18     8     9   ar
    19     9    10   ar
    20    10    11    1
    21    11     2   am
    22    10     5   ar
    23    22    13   ar
    24    22    17   ar
    25    11    12    1
@<TRIPOS>MOLECULE
*****
 22 25 0 0 0
SMALL
GASTEIGER

@<TRIPOS>ATOM
      1 O          58.9319   89.5384    6.5590 O.2     1  UNL1       -0.2748
      2 C          59.6211   88.7082    7.6011 C.2     1  UNL1        0.2264
      3 C          59.4154   87.2227    7.6332 C.3     1  UNL1        0.0901
      4 C          60.1046   86.3925    8.6752 C.3     1  UNL1        0.0372
      5 C          60.9994   87.0478    9.6851 C.ar    1  UNL1       -0.0082
      6 C          61.6886   86.2175   10.7271 C.ar    1  UNL1       -0.0030
      7 C          62.5834   86.8728   11.7369 C.ar    1  UNL1        0.0013
      8 C          62.7891   88.3583   11.7048 C.ar    1  UNL1        0.0013
      9 C          62.0999   89.1885   10.6628 C.ar    1  UNL1        0.0144
     10 C          61.2051   88.5332    9.6529 C.ar    1  UNL1        0.0463
     11 N          60.5159   89.3634    8.6109 N.am    1  UNL1       -0.2842
     12 H          60.6509   90.3384    8.5898 H       1  UNL1        0.1548
     13 C          63.2726   86.0426   12.7790 C.ar    1  UNL1        0.0192
     14 C          63.9294   86.7062   13.9529 C.ar    1  UNL1        0.0988
     15 N          64.6186   85.8760   14.9949 N.ar    1  UNL1       -0.2423
     16 C          64.6510   84.3822   14.8630 C.ar    1  UNL1        0.0988
     17 C          63.9941   83.7185   13.6890 C.ar    1  UNL1        0.0192
     18 C          64.0265   82.2247   13.5570 C.ar    1  UNL1        0.0015
     19 C          63.3697   81.5610   12.3830 C.ar    1  UNL1        0.0000
     20 C          62.6805   82.3912   11.3410 C.ar    1  UNL1        0.0000
     21 C          62.6482   83.8851   11.4730 C.ar    1  UNL1        0.0001
     22 C          63.3050   84.5487   12.6469 C.ar    1  UNL1        0.0030
@<TRIPOS>BOND
     1     1     2    2
     2     2     3    1
     3     3     4    1
     4     4     5    1
     5     5     6   ar
     6     6     7   ar
     7     7    13    1
     8    13    14   ar
     9    14    15   ar
    10    15    16   ar
    11    16    17   ar
    12    17    18   ar
    13    18    19   ar
    14    19    20   ar
    15    20    21   ar
    16    21    22   ar
    17     7     8   ar
    18     8     9   ar
    19     9    10   ar
    20    10    11    1
    21    11     2   am
    22    10     5   ar
    23    22    13   ar
    24    22    17   ar
    25    11    12    1
@<TRIPOS>MOLECULE
*****
 22 25 0 0 0
SMALL
GASTEIGER

@<TRIPOS>ATOM
      1 O          59.0498   86.3719    7.4307 O.2     1  UNL1       -0.2748
      2 C          59.8298   87.2727    8.3418 C.2     1  UNL1        0.2264
      3 C          59.7374   88.7614    8.1838 C.3     1  UNL1        0.0901
      4 C          60.5175   89.6622    9.0950 C.3     1  UNL1        0.0372
      5 C          61.3900   89.0742   10.1641 C.ar    1  UNL1       -0.0082
      6 C          62.1700   89.9749   11.0752 C.ar    1  UNL1       -0.0030
      7 C          63.0425   89.3869   12.1443 C.ar    1  UNL1        0.0013
      8 C          63.1349   87.8981   12.3023 C.ar    1  UNL1        0.0013
      9 C          62.3549   86.9973   11.3912 C.ar    1  UNL1        0.0144
     10 C          61.4824   87.5854   10.3220 C.ar    1  UNL1        0.0463
     11 N          60.7023   86.6846    9.4109 N.am    1  UNL1       -0.2842
     12 H          60.7629   85.7075    9.5146 H       1  UNL1        0.1548
     13 C          63.8226   90.2877   13.0554 C.ar    1  UNL1        0.0192
     14 C          63.8227   90.0401   14.5348 C.ar    1  UNL1        0.0988
     15 N          64.6027   90.9409   15.4459 N.ar    1  UNL1       -0.2423
     16 C          65.3827   92.0892   14.8776 C.ar    1  UNL1        0.0988
     17 C          65.3826   92.3368   13.3982 C.ar    1  UNL1        0.0192
     18 C          66.1626   93.4851   12.8299 C.ar    1  UNL1        0.0015
     19 C          66.1625   93.7327   11.3504 C.ar    1  UNL1        0.0000
     20 C          65.3824   92.8320   10.4393 C.ar    1  UNL1        0.0000
     21 C          64.6024   91.6836   11.0076 C.ar    1  UNL1        0.0001
     22 C          64.6025   91.4360   12.4870 C.ar    1  UNL1        0.0030
@<TRIPOS>BOND
     1     1     2    2
     2     2     3    1
     3     3     4    1
     4     4     5    1
     5     5     6   ar
     6     6     7   ar
     7     7    13    1
     8    13    14   ar
     9    14    15   ar
    10    15    16   ar
    11    16    17   ar
    12    17    18   ar
    13    18    19   ar
    14    19    20   ar
    15    20    21   ar
    16    21    22   ar
    17     7     8   ar
    18     8     9   ar
    19     9    10   ar
    20    10    11    1
    21    11     2   am
    22    10     5   ar
    23    22    13   ar
    24    22    17   ar
    25    11    12    1
@<TRIPOS>MOLECULE
*****
 22 25 0 0 0
SMALL
GASTEIGER

@<TRIPOS>ATOM
      1 O          64.3800   92.2605   12.7751 O.2     1  UNL1       -0.2748
      2 C          64.0093   90.8075   12.7380 C.2     1  UNL1        0.2264
      3 C          63.1696   90.2761   11.6144 C.3     1  UNL1        0.0901
      4 C          62.7989   88.8231   11.5773 C.3     1  UNL1        0.0372
      5 C          63.2681   87.9014   12.6637 C.ar    1  UNL1       -0.0082
      6 C          62.8974   86.4484   12.6266 C.ar    1  UNL1       -0.0030
      7 C          63.3666   85.5267   13.7130 C.ar    1  UNL1        0.0013
      8 C          64.2064   86.0580   14.8366 C.ar    1  UNL1        0.0013
      9 C          64.5770   87.5110   14.8737 C.ar    1  UNL1        0.0144
     10 C          64.1079   88.4327   13.7873 C.ar    1  UNL1        0.0463
     11 N          64.4785   89.8858   13.8244 N.am    1  UNL1       -0.2842
     12 H          65.0297   90.2345   14.5618 H       1  UNL1        0.1548
     13 C          62.9959   84.0737   13.6758 C.ar    1  UNL1        0.0192
     14 C          62.3670   83.4292   14.8754 C.ar    1  UNL1        0.0988
     15 N          61.9963   81.9762   14.8383 N.ar    1  UNL1       -0.2423
     16 C          62.2546   81.1677   13.6015 C.ar    1  UNL1        0.0988
     17 C          62.8836   81.8122   12.4019 C.ar    1  UNL1        0.0192
     18 C          63.1419   81.0036   11.1652 C.ar    1  UNL1        0.0015
     19 C          63.7709   81.6481    9.9655 C.ar    1  UNL1        0.0000
     20 C          64.1415   83.1011   10.0026 C.ar    1  UNL1        0.0000
     21 C          63.8832   83.9097   11.2394 C.ar    1  UNL1        0.0001
     22 C          63.2543   83.2652   12.4390 C.ar    1  UNL1        0.0030
@<TRIPOS>BOND
     1     1     2    2
     2     2     3    1
     3     3     4    1
     4     4     5    1
     5     5     6   ar
     6     6     7   ar
     7     7    13    1
     8    13    14   ar
     9    14    15   ar
    10    15    16   ar
    11    16    17   ar
    12    17    18   ar
    13    18    19   ar
    14    19    20   ar
    15    20    21   ar
    16    21    22   ar
    17     7     8   ar
    18     8     9   ar
    19     9    10   ar
    20    10    11    1
    21    11     2   am
    22    10     5   ar
    23    22    13   ar
    24    22    17   ar
    25    11    12    1
