@<TRIPOS>MOLECULE
*****
 27 30 0 0 0
SMALL
GASTEIGER

@<TRIPOS>ATOM
      1 C          63.1381   89.7326   14.4499 C.3     1  UNL1        0.1363
      2 N          63.8899   90.6196   13.5022 N.ar    1  UNL1       -0.2667
      3 C          63.4474   90.7370   12.0739 C.ar    1  UNL1        0.2036
      4 N          64.1992   91.6240   11.1262 N.ar    1  UNL1       -0.2148
      5 C          65.3935   92.3936   11.6070 C.ar    1  UNL1        0.0890
      6 C          65.8361   92.2762   13.0354 C.ar    1  UNL1        0.0800
      7 C          65.0843   91.3892   13.9830 C.ar    1  UNL1        0.2645
      8 O          65.5269   91.2718   15.4114 O.2     1  UNL1       -0.2668
      9 N          62.2530   89.9673   11.5930 N.pl3   1  UNL1       -0.2740
     10 C          60.8908   90.2789   12.1382 C.3     1  UNL1        0.1257
     11 C          59.6964   89.5093   11.6574 C.3     1  UNL1        0.1640
     12 O          59.8642   88.4280   10.6314 O.3     1  UNL1       -0.3483
     13 C          61.2265   88.1164   10.0862 C.3     1  UNL1        0.1572
     14 C          62.4208   88.8861   10.5670 C.3     1  UNL1        0.1276
     15 C          61.3944   87.0352    9.0602 C.ar    1  UNL1        0.0064
     16 C          60.2516   86.6729    8.1585 C.ar    1  UNL1        0.0004
     17 C          60.4195   85.5917    7.1325 C.ar    1  UNL1        0.0294
     18 C          61.7301   84.8727    7.0081 C.ar    1  UNL1        0.1401
     19 F          61.8980   83.7914    5.9821 F       1  UNL1       -0.2042
     20 C          62.8728   85.2350    7.9098 C.ar    1  UNL1        0.0294
     21 C          62.7049   86.3162    8.9358 C.ar    1  UNL1        0.0004
     22 C          66.1453   93.2806   10.6593 C.ar    1  UNL1        0.0210
     23 C          67.3240   92.7425    9.9036 C.ar    1  UNL1        0.0222
     24 C          68.0758   93.6295    8.9559 C.ar    1  UNL1        0.0989
     25 N          67.6489   95.0546    8.7641 N.ar    1  UNL1       -0.2423
     26 C          66.4703   95.5927    9.5198 C.ar    1  UNL1        0.0989
     27 C          65.7185   94.7057   10.4675 C.ar    1  UNL1        0.0222
@<TRIPOS>BOND
     1     1     2    1
     2     2     3   ar
     3     3     9    1
     4     9    10    1
     5    10    11    1
     6    11    12    1
     7    12    13    1
     8    13    15    1
     9    15    16   ar
    10    16    17   ar
    11    17    18   ar
    12    18    19    1
    13    18    20   ar
    14    20    21   ar
    15    13    14    1
    16     3     4   ar
    17     4     5   ar
    18     5    22    1
    19    22    23   ar
    20    23    24   ar
    21    24    25   ar
    22    25    26   ar
    23    26    27   ar
    24     5     6   ar
    25     6     7   ar
    26     7     8    2
    27     7     2   ar
    28    14     9    1
    29    27    22   ar
    30    21    15   ar
@<TRIPOS>MOLECULE
*****
 27 30 0 0 0
SMALL
GASTEIGER

@<TRIPOS>ATOM
      1 C          63.2147   90.0940   15.1085 C.3     1  UNL1        0.1363
      2 N          63.9839   90.9093   14.1118 N.ar    1  UNL1       -0.2667
      3 C          63.7389   90.7252   12.6435 C.ar    1  UNL1        0.2036
      4 N          64.5082   91.5405   11.6467 N.ar    1  UNL1       -0.2148
      5 C          65.5225   92.5399   12.1183 C.ar    1  UNL1        0.0890
      6 C          65.7675   92.7240   13.5866 C.ar    1  UNL1        0.0800
      7 C          64.9982   91.9087   14.5834 C.ar    1  UNL1        0.2645
      8 O          65.2433   92.0928   16.0518 O.2     1  UNL1       -0.2668
      9 N          62.7246   89.7258   12.1718 N.pl3   1  UNL1       -0.2740
     10 C          61.3019   90.1475   11.9525 C.3     1  UNL1        0.1257
     11 C          60.2876   89.1481   11.4808 C.3     1  UNL1        0.1640
     12 O          60.6960   87.7270   11.2285 O.3     1  UNL1       -0.3483
     13 C          62.1188   87.3053   11.4479 C.3     1  UNL1        0.1572
     14 C          63.1330   88.3047   11.9195 C.3     1  UNL1        0.1276
     15 C          62.5272   85.8842   11.1956 C.ar    1  UNL1        0.0064
     16 C          62.7048   84.9392   12.3469 C.ar    1  UNL1        0.0004
     17 C          63.1132   83.5181   12.0946 C.ar    1  UNL1        0.0294
     18 C          63.3440   83.0420   10.6910 C.ar    1  UNL1        0.1401
     19 F          63.7525   81.6209   10.4387 F       1  UNL1       -0.2042
     20 C          63.1664   83.9870    9.5397 C.ar    1  UNL1        0.0294
     21 C          62.7580   85.4081    9.7920 C.ar    1  UNL1        0.0004
     22 C          66.2918   93.3552   11.1216 C.ar    1  UNL1        0.0210
     23 C          67.2390   92.6819   10.1732 C.ar    1  UNL1        0.0222
     24 C          68.0083   93.4972    9.1765 C.ar    1  UNL1        0.0989
     25 N          67.8303   94.9858    9.1281 N.ar    1  UNL1       -0.2423
     26 C          66.8831   95.6591   10.0764 C.ar    1  UNL1        0.0989
     27 C          66.1138   94.8438   11.0732 C.ar    1  UNL1        0.0222
@<TRIPOS>BOND
     1     1     2    1
     2     2     3   ar
     3     3     9    1
     4     9    10    1
     5    10    11    1
     6    11    12    1
     7    12    13    1
     8    13    15    1
     9    15    16   ar
    10    16    17   ar
    11    17    18   ar
    12    18    19    1
    13    18    20   ar
    14    20    21   ar
    15    13    14    1
    16     3     4   ar
    17     4     5   ar
    18     5    22    1
    19    22    23   ar
    20    23    24   ar
    21    24    25   ar
    22    25    26   ar
    23    26    27   ar
    24     5     6   ar
    25     6     7   ar
    26     7     8    2
    27     7     2   ar
    28    14     9    1
    29    27    22   ar
    30    21    15   ar
@<TRIPOS>MOLECULE
*****
 27 30 0 0 0
SMALL
GASTEIGER

@<TRIPOS>ATOM
      1 C          61.2626   90.4720   10.7701 C.3     1  UNL1        0.1363
      2 N          61.6504   89.0611   11.1003 N.ar    1  UNL1       -0.2667
      3 C          62.7875   88.7967   12.0420 C.ar    1  UNL1        0.2036
      4 N          63.1753   87.3858   12.3721 N.ar    1  UNL1       -0.2148
      5 C          62.4260   86.2393   11.7605 C.ar    1  UNL1        0.0890
      6 C          61.2888   86.5038   10.8188 C.ar    1  UNL1        0.0800
      7 C          60.9010   87.9147   10.4887 C.ar    1  UNL1        0.2645
      8 O          59.7638   88.1791    9.5469 O.2     1  UNL1       -0.2668
      9 N          63.5370   89.9432   12.6536 N.pl3   1  UNL1       -0.2740
     10 C          63.5246   90.1392   14.1407 C.3     1  UNL1        0.1257
     11 C          64.2741   91.2857   14.7523 C.3     1  UNL1        0.1640
     12 O          65.0358   92.2360   13.8768 O.3     1  UNL1       -0.3483
     13 C          65.0482   92.0399   12.3897 C.3     1  UNL1        0.1572
     14 C          64.2988   90.8935   11.7781 C.3     1  UNL1        0.1276
     15 C          65.8100   92.9903   11.5142 C.ar    1  UNL1        0.0064
     16 C          66.5834   92.4710   10.3385 C.ar    1  UNL1        0.0004
     17 C          67.3452   93.4214    9.4630 C.ar    1  UNL1        0.0294
     18 C          67.3335   94.8911    9.7632 C.ar    1  UNL1        0.1401
     19 F          68.0953   95.8414    8.8877 F       1  UNL1       -0.2042
     20 C          66.5600   95.4103   10.9388 C.ar    1  UNL1        0.0294
     21 C          65.7983   94.4599   11.8143 C.ar    1  UNL1        0.0004
     22 C          62.8138   84.8285   12.0907 C.ar    1  UNL1        0.0210
     23 C          63.2182   83.8861   10.9960 C.ar    1  UNL1        0.0222
     24 C          63.6060   82.4752   11.3261 C.ar    1  UNL1        0.0989
     25 N          63.5894   82.0067   12.7509 N.ar    1  UNL1       -0.2423
     26 C          63.1849   82.9490   13.8456 C.ar    1  UNL1        0.0989
     27 C          62.7971   84.3599   13.5155 C.ar    1  UNL1        0.0222
@<TRIPOS>BOND
     1     1     2    1
     2     2     3   ar
     3     3     9    1
     4     9    10    1
     5    10    11    1
     6    11    12    1
     7    12    13    1
     8    13    15    1
     9    15    16   ar
    10    16    17   ar
    11    17    18   ar
    12    18    19    1
    13    18    20   ar
    14    20    21   ar
    15    13    14    1
    16     3     4   ar
    17     4     5   ar
    18     5    22    1
    19    22    23   ar
    20    23    24   ar
    21    24    25   ar
    22    25    26   ar
    23    26    27   ar
    24     5     6   ar
    25     6     7   ar
    26     7     8    2
    27     7     2   ar
    28    14     9    1
    29    27    22   ar
    30    21    15   ar
@<TRIPOS>MOLECULE
*****
 27 30 0 0 0
SMALL
GASTEIGER

@<TRIPOS>ATOM
      1 C          63.1479   88.8188   16.9931 C.3     1  UNL1        0.1363
      2 N          63.2066   87.5321   16.2245 N.ar    1  UNL1       -0.2667
      3 C          63.6275   87.5369   14.7848 C.ar    1  UNL1        0.2036
      4 N          63.6863   86.2501   14.0162 N.ar    1  UNL1       -0.2148
      5 C          63.3241   84.9585   14.6873 C.ar    1  UNL1        0.0890
      6 C          62.9032   84.9536   16.1270 C.ar    1  UNL1        0.0800
      7 C          62.8445   86.2404   16.8956 C.ar    1  UNL1        0.2645
      8 O          62.4236   86.2355   18.3354 O.2     1  UNL1       -0.2668
      9 N          63.9897   88.8286   14.1136 N.pl3   1  UNL1       -0.2740
     10 C          63.2211   89.2903   12.9111 C.3     1  UNL1        0.1257
     11 C          63.5833   90.5820   12.2399 C.3     1  UNL1        0.1640
     12 O          64.7141   91.4119   12.7713 O.3     1  UNL1       -0.3483
     13 C          65.4828   90.9502   13.9738 C.3     1  UNL1        0.1572
     14 C          65.1206   89.6586   14.6450 C.3     1  UNL1        0.1276
     15 C          66.6136   91.7802   14.5052 C.ar    1  UNL1        0.0064
     16 C          66.4263   92.5923   15.7524 C.ar    1  UNL1        0.0004
     17 C          67.5572   93.4223   16.2838 C.ar    1  UNL1        0.0294
     18 C          68.8753   93.4401   15.5679 C.ar    1  UNL1        0.1401
     19 F          70.0061   94.2701   16.0993 F       1  UNL1       -0.2042
     20 C          69.0625   92.6280   14.3208 C.ar    1  UNL1        0.0294
     21 C          67.9317   91.7980   13.7894 C.ar    1  UNL1        0.0004
     22 C          63.3828   83.6717   13.9187 C.ar    1  UNL1        0.0210
     23 C          64.1980   83.5849   12.6626 C.ar    1  UNL1        0.0222
     24 C          64.2567   82.2981   11.8940 C.ar    1  UNL1        0.0989
     25 N          63.5003   81.0981   12.3815 N.ar    1  UNL1       -0.2423
     26 C          62.6852   81.1849   13.6377 C.ar    1  UNL1        0.0989
     27 C          62.6264   82.4717   14.4063 C.ar    1  UNL1        0.0222
@<TRIPOS>BOND
     1     1     2    1
     2     2     3   ar
     3     3     9    1
     4     9    10    1
     5    10    11    1
     6    11    12    1
     7    12    13    1
     8    13    15    1
     9    15    16   ar
    10    16    17   ar
    11    17    18   ar
    12    18    19    1
    13    18    20   ar
    14    20    21   ar
    15    13    14    1
    16     3     4   ar
    17     4     5   ar
    18     5    22    1
    19    22    23   ar
    20    23    24   ar
    21    24    25   ar
    22    25    26   ar
    23    26    27   ar
    24     5     6   ar
    25     6     7   ar
    26     7     8    2
    27     7     2   ar
    28    14     9    1
    29    27    22   ar
    30    21    15   ar
@<TRIPOS>MOLECULE
*****
 27 30 0 0 0
SMALL
GASTEIGER

@<TRIPOS>ATOM
      1 C          61.8767   87.1297   11.3522 C.3     1  UNL1        0.1363
      2 N          62.7022   88.2690   11.8724 N.ar    1  UNL1       -0.2667
      3 C          63.5993   88.0655   13.0572 C.ar    1  UNL1        0.2036
      4 N          64.4248   89.2048   13.5774 N.ar    1  UNL1       -0.2148
      5 C          64.3532   90.5476   12.9128 C.ar    1  UNL1        0.0890
      6 C          63.4561   90.7511   11.7280 C.ar    1  UNL1        0.0800
      7 C          62.6306   89.6118   11.2078 C.ar    1  UNL1        0.2645
      8 O          61.7335   89.8154   10.0229 O.2     1  UNL1       -0.2668
      9 N          63.6709   86.7227   13.7218 N.pl3   1  UNL1       -0.2740
     10 C          63.9453   86.6279   15.1934 C.3     1  UNL1        0.1257
     11 C          64.0169   85.2850   15.8581 C.3     1  UNL1        0.1640
     12 O          63.8141   84.0370   15.0511 O.3     1  UNL1       -0.3483
     13 C          63.5397   84.1318   13.5794 C.3     1  UNL1        0.1572
     14 C          63.4681   85.4746   12.9148 C.3     1  UNL1        0.1276
     15 C          63.3369   82.8838   12.7724 C.ar    1  UNL1        0.0064
     16 C          63.6629   82.8761   11.3082 C.ar    1  UNL1        0.0004
     17 C          63.4601   81.6281   10.5012 C.ar    1  UNL1        0.0294
     18 C          62.9312   80.3877   11.1584 C.ar    1  UNL1        0.1401
     19 F          62.7284   79.1397   10.3514 F       1  UNL1       -0.2042
     20 C          62.6052   80.3954   12.6224 C.ar    1  UNL1        0.0294
     21 C          62.8080   81.6434   13.4295 C.ar    1  UNL1        0.0004
     22 C          65.1787   91.6868   13.4330 C.ar    1  UNL1        0.0210
     23 C          65.6015   91.7110   14.8719 C.ar    1  UNL1        0.0222
     24 C          66.4269   92.8502   15.3921 C.ar    1  UNL1        0.0989
     25 N          66.8297   93.9654   14.4734 N.ar    1  UNL1       -0.2423
     26 C          66.4069   93.9413   13.0344 C.ar    1  UNL1        0.0989
     27 C          65.5814   92.8020   12.5142 C.ar    1  UNL1        0.0222
@<TRIPOS>BOND
     1     1     2    1
     2     2     3   ar
     3     3     9    1
     4     9    10    1
     5    10    11    1
     6    11    12    1
     7    12    13    1
     8    13    15    1
     9    15    16   ar
    10    16    17   ar
    11    17    18   ar
    12    18    19    1
    13    18    20   ar
    14    20    21   ar
    15    13    14    1
    16     3     4   ar
    17     4     5   ar
    18     5    22    1
    19    22    23   ar
    20    23    24   ar
    21    24    25   ar
    22    25    26   ar
    23    26    27   ar
    24     5     6   ar
    25     6     7   ar
    26     7     8    2
    27     7     2   ar
    28    14     9    1
    29    27    22   ar
    30    21    15   ar
@<TRIPOS>MOLECULE
*****
 27 30 0 0 0
SMALL
GASTEIGER

@<TRIPOS>ATOM
      1 C          64.5596   87.5253   14.6043 C.3     1  UNL1        0.1363
      2 N          63.6836   87.5578   13.3871 N.ar    1  UNL1       -0.2667
      3 C          63.4614   88.8492   12.6572 C.ar    1  UNL1        0.2036
      4 N          62.5855   88.8817   11.4400 N.ar    1  UNL1       -0.2148
      5 C          61.9318   87.6227   10.9526 C.ar    1  UNL1        0.0890
      6 C          62.1540   86.3312   11.6825 C.ar    1  UNL1        0.0800
      7 C          63.0299   86.2988   12.8997 C.ar    1  UNL1        0.2645
      8 O          63.2522   85.0073   13.6296 O.2     1  UNL1       -0.2668
      9 N          64.1151   90.1083   13.1446 N.pl3   1  UNL1       -0.2740
     10 C          64.1371   90.4228   14.6110 C.3     1  UNL1        0.1257
     11 C          64.7909   91.6818   15.0984 C.3     1  UNL1        0.1640
     12 O          65.4225   92.6264   14.1192 O.3     1  UNL1       -0.3483
     13 C          65.4005   92.3119   12.6527 C.3     1  UNL1        0.1572
     14 C          64.7468   91.0529   12.1654 C.3     1  UNL1        0.1276
     15 C          66.0322   93.2564   11.6735 C.ar    1  UNL1        0.0064
     16 C          66.7082   92.7224   10.4455 C.ar    1  UNL1        0.0004
     17 C          67.3399   93.6670    9.4663 C.ar    1  UNL1        0.0294
     18 C          67.2955   95.1456    9.7151 C.ar    1  UNL1        0.1401
     19 F          67.9272   96.0901    8.7359 F       1  UNL1       -0.2042
     20 C          66.6195   95.6795   10.9431 C.ar    1  UNL1        0.0294
     21 C          65.9879   94.7350   11.9222 C.ar    1  UNL1        0.0004
     22 C          61.0558   87.6551    9.7353 C.ar    1  UNL1        0.0210
     23 C          60.6322   86.3732    9.0818 C.ar    1  UNL1        0.0222
     24 C          59.7563   86.4057    7.8645 C.ar    1  UNL1        0.0989
     25 N          59.3040   87.7200    7.3008 N.ar    1  UNL1       -0.2423
     26 C          59.7276   89.0019    7.9544 C.ar    1  UNL1        0.0989
     27 C          60.6035   88.9695    9.1716 C.ar    1  UNL1        0.0222
@<TRIPOS>BOND
     1     1     2    1
     2     2     3   ar
     3     3     9    1
     4     9    10    1
     5    10    11    1
     6    11    12    1
     7    12    13    1
     8    13    15    1
     9    15    16   ar
    10    16    17   ar
    11    17    18   ar
    12    18    19    1
    13    18    20   ar
    14    20    21   ar
    15    13    14    1
    16     3     4   ar
    17     4     5   ar
    18     5    22    1
    19    22    23   ar
    20    23    24   ar
    21    24    25   ar
    22    25    26   ar
    23    26    27   ar
    24     5     6   ar
    25     6     7   ar
    26     7     8    2
    27     7     2   ar
    28    14     9    1
    29    27    22   ar
    30    21    15   ar
@<TRIPOS>MOLECULE
*****
 27 30 0 0 0
SMALL
GASTEIGER

@<TRIPOS>ATOM
      1 C          59.8018   88.0006    9.8581 C.3     1  UNL1        0.1363
      2 N          60.8290   88.7504   10.6534 N.ar    1  UNL1       -0.2667
      3 C          62.1659   88.1281   10.9280 C.ar    1  UNL1        0.2036
      4 N          63.1931   88.8779   11.7234 N.ar    1  UNL1       -0.2148
      5 C          62.8835   90.2501   12.2441 C.ar    1  UNL1        0.0890
      6 C          61.5467   90.8725   11.9695 C.ar    1  UNL1        0.0800
      7 C          60.5194   90.1226   11.1742 C.ar    1  UNL1        0.2645
      8 O          59.1825   90.7450   10.8996 O.2     1  UNL1       -0.2668
      9 N          62.4756   86.7558   10.4073 N.pl3   1  UNL1       -0.2740
     10 C          62.7867   86.5579    8.9534 C.3     1  UNL1        0.1257
     11 C          63.0964   85.1857    8.4326 C.3     1  UNL1        0.1640
     12 O          63.0949   84.0114    9.3659 O.3     1  UNL1       -0.3483
     13 C          62.7838   84.2093   10.8199 C.3     1  UNL1        0.1572
     14 C          62.4741   85.5815   11.3406 C.3     1  UNL1        0.1276
     15 C          62.7823   83.0350   11.7532 C.ar    1  UNL1        0.0064
     16 C          62.6379   83.2513   13.2306 C.ar    1  UNL1        0.0004
     17 C          62.6364   82.0770   14.1638 C.ar    1  UNL1        0.0294
     18 C          62.7794   80.6864   13.6198 C.ar    1  UNL1        0.1401
     19 F          62.7779   79.5121   14.5531 F       1  UNL1       -0.2042
     20 C          62.9238   80.4702   12.1425 C.ar    1  UNL1        0.0294
     21 C          62.9253   81.6445   11.2093 C.ar    1  UNL1        0.0004
     22 C          63.9107   91.0000   13.0394 C.ar    1  UNL1        0.0210
     23 C          64.0205   90.7804   14.5192 C.ar    1  UNL1        0.0222
     24 C          65.0477   91.5303   15.3145 C.ar    1  UNL1        0.0989
     25 N          65.9652   92.4996   14.6301 N.ar    1  UNL1       -0.2423
     26 C          65.8555   92.7191   13.1503 C.ar    1  UNL1        0.0989
     27 C          64.8283   91.9693   12.3550 C.ar    1  UNL1        0.0222
@<TRIPOS>BOND
     1     1     2    1
     2     2     3   ar
     3     3     9    1
     4     9    10    1
     5    10    11    1
     6    11    12    1
     7    12    13    1
     8    13    15    1
     9    15    16   ar
    10    16    17   ar
    11    17    18   ar
    12    18    19    1
    13    18    20   ar
    14    20    21   ar
    15    13    14    1
    16     3     4   ar
    17     4     5   ar
    18     5    22    1
    19    22    23   ar
    20    23    24   ar
    21    24    25   ar
    22    25    26   ar
    23    26    27   ar
    24     5     6   ar
    25     6     7   ar
    26     7     8    2
    27     7     2   ar
    28    14     9    1
    29    27    22   ar
    30    21    15   ar
@<TRIPOS>MOLECULE
*****
 27 30 0 0 0
SMALL
GASTEIGER

@<TRIPOS>ATOM
      1 C          62.1850   88.8148   12.2521 C.3     1  UNL1        0.1363
      2 N          63.3472   89.5975   12.7873 N.ar    1  UNL1       -0.2667
      3 C          64.1268   89.0766   13.9581 C.ar    1  UNL1        0.2036
      4 N          65.2891   89.8593   14.4934 N.ar    1  UNL1       -0.2148
      5 C          65.6718   91.1630   13.8578 C.ar    1  UNL1        0.0890
      6 C          64.8922   91.6839   12.6870 C.ar    1  UNL1        0.0800
      7 C          63.7299   90.9012   12.1518 C.ar    1  UNL1        0.2645
      8 O          62.9503   91.4222   10.9809 O.2     1  UNL1       -0.2668
      9 N          63.7442   87.7729   14.5938 N.pl3   1  UNL1       -0.2740
     10 C          63.4725   87.7082   16.0675 C.3     1  UNL1        0.1257
     11 C          63.0898   86.4045   16.7032 C.3     1  UNL1        0.1640
     12 O          62.9788   85.1655   15.8650 O.3     1  UNL1       -0.3483
     13 C          63.2505   85.2302   14.3912 C.3     1  UNL1        0.1572
     14 C          63.6332   86.5339   13.7556 C.3     1  UNL1        0.1276
     15 C          63.1396   83.9912   13.5530 C.ar    1  UNL1        0.0064
     16 C          63.7367   83.9604   12.1772 C.ar    1  UNL1        0.0004
     17 C          63.6257   82.7214   11.3390 C.ar    1  UNL1        0.0294
     18 C          62.9176   81.5132   11.8766 C.ar    1  UNL1        0.1401
     19 F          62.8067   80.2742   11.0384 F       1  UNL1       -0.2042
     20 C          62.3206   81.5440   13.2523 C.ar    1  UNL1        0.0294
     21 C          62.4315   82.7830   14.0905 C.ar    1  UNL1        0.0004
     22 C          66.8340   91.9457   14.3931 C.ar    1  UNL1        0.0210
     23 C          68.1878   91.8038   13.7628 C.ar    1  UNL1        0.0222
     24 C          69.3500   92.5865   14.2980 C.ar    1  UNL1        0.0989
     25 N          69.1586   93.5112   15.4635 N.ar    1  UNL1       -0.2423
     26 C          67.8048   93.6530   16.0938 C.ar    1  UNL1        0.0989
     27 C          66.6426   92.8703   15.5585 C.ar    1  UNL1        0.0222
@<TRIPOS>BOND
     1     1     2    1
     2     2     3   ar
     3     3     9    1
     4     9    10    1
     5    10    11    1
     6    11    12    1
     7    12    13    1
     8    13    15    1
     9    15    16   ar
    10    16    17   ar
    11    17    18   ar
    12    18    19    1
    13    18    20   ar
    14    20    21   ar
    15    13    14    1
    16     3     4   ar
    17     4     5   ar
    18     5    22    1
    19    22    23   ar
    20    23    24   ar
    21    24    25   ar
    22    25    26   ar
    23    26    27   ar
    24     5     6   ar
    25     6     7   ar
    26     7     8    2
    27     7     2   ar
    28    14     9    1
    29    27    22   ar
    30    21    15   ar
@<TRIPOS>MOLECULE
*****
 27 30 0 0 0
SMALL
GASTEIGER

@<TRIPOS>ATOM
      1 C          64.4400   89.1120   14.1919 C.3     1  UNL1        0.1363
      2 N          63.5259   88.9917   13.0088 N.ar    1  UNL1       -0.2667
      3 C          63.0557   87.6403   12.5587 C.ar    1  UNL1        0.2036
      4 N          62.1415   87.5200   11.3755 N.ar    1  UNL1       -0.2148
      5 C          61.6975   88.7510   10.6425 C.ar    1  UNL1        0.0890
      6 C          62.1677   90.1024   11.0927 C.ar    1  UNL1        0.0800
      7 C          63.0819   90.2227   12.2758 C.ar    1  UNL1        0.2645
      8 O          63.5521   91.5742   12.7259 O.2     1  UNL1       -0.2668
      9 N          63.4996   86.4092   13.2917 N.pl3   1  UNL1       -0.2740
     10 C          64.2301   86.5352   14.5957 C.3     1  UNL1        0.1257
     11 C          64.6741   85.3040   15.3287 C.3     1  UNL1        0.1640
     12 O          64.3876   83.9469   14.7576 O.3     1  UNL1       -0.3483
     13 C          63.6571   83.8209   13.4535 C.3     1  UNL1        0.1572
     14 C          63.2131   85.0521   12.7206 C.3     1  UNL1        0.1276
     15 C          63.3705   82.4638   12.8825 C.ar    1  UNL1        0.0064
     16 C          63.5036   82.2276   11.4071 C.ar    1  UNL1        0.0004
     17 C          63.2170   80.8705   10.8360 C.ar    1  UNL1        0.0294
     18 C          62.7975   79.7496   11.7403 C.ar    1  UNL1        0.1401
     19 F          62.5109   78.3925   11.1692 F       1  UNL1       -0.2042
     20 C          62.6645   79.9858   13.2156 C.ar    1  UNL1        0.0294
     21 C          62.9510   81.3430   13.7866 C.ar    1  UNL1        0.0004
     22 C          60.7833   88.6307    9.4594 C.ar    1  UNL1        0.0210
     23 C          60.4734   89.8382    8.6252 C.ar    1  UNL1        0.0222
     24 C          59.5592   89.7179    7.4421 C.ar    1  UNL1        0.0989
     25 N          58.9550   88.3901    7.0931 N.ar    1  UNL1       -0.2423
     26 C          59.2649   87.1826    7.9273 C.ar    1  UNL1        0.0989
     27 C          60.1791   87.3029    9.1105 C.ar    1  UNL1        0.0222
@<TRIPOS>BOND
     1     1     2    1
     2     2     3   ar
     3     3     9    1
     4     9    10    1
     5    10    11    1
     6    11    12    1
     7    12    13    1
     8    13    15    1
     9    15    16   ar
    10    16    17   ar
    11    17    18   ar
    12    18    19    1
    13    18    20   ar
    14    20    21   ar
    15    13    14    1
    16     3     4   ar
    17     4     5   ar
    18     5    22    1
    19    22    23   ar
    20    23    24   ar
    21    24    25   ar
    22    25    26   ar
    23    26    27   ar
    24     5     6   ar
    25     6     7   ar
    26     7     8    2
    27     7     2   ar
    28    14     9    1
    29    27    22   ar
    30    21    15   ar
