@<TRIPOS>MOLECULE
*****
 53 57 0 0 0
SMALL
GASTEIGER

@<TRIPOS>ATOM
      1 C          64.0469   91.8696   11.2270 C.3     1  UNL1        0.0760
      2 C          61.9843   90.4307   10.5749 C.2     1  UNL1        0.2407
      3 O          61.0741   91.4736   11.1526 O.2     1  UNL1       -0.2733
      4 N          63.4707   90.6286   10.6121 N.am    1  UNL1       -0.3043
      5 H          64.0682   89.9441   10.2330 H       1  UNL1        0.1494
      6 N          62.8072   85.9084   11.8030 N.am    1  UNL1       -0.2566
      7 C          63.7242   85.4921   12.9146 C.3     1  UNL1        0.1168
      8 C          62.6152   87.3637   11.4942 C.2     1  UNL1        0.3079
      9 O          63.3404   88.4027   12.2972 O.2     1  UNL1       -0.2523
     10 N          61.6981   87.7799   10.3827 N.am    1  UNL1       -0.2547
     11 C          60.9100   86.8596    9.4984 C.3     1  UNL1        0.1245
     12 C          60.1329   87.7005    8.5294 C.3     1  UNL1        0.1325
     13 O          59.2101   87.1908    7.4624 O.3     1  UNL1       -0.3826
     14 C          60.4408   89.1406    8.8147 C.3     1  UNL1        0.0602
     15 C          61.4081   89.1897    9.9601 C.3     1  UNL1        0.1555
     16 H          59.1880   86.2214    7.4901 H       1  UNL1        0.2104
     17 C          62.0820   84.8693   11.0001 C.3     1  UNL1        0.1413
     18 C          62.8668   81.0877   11.3854 C.ar    1  UNL1        0.0875
     19 N          62.0542   82.2993   11.7343 N.ar    1  UNL1       -0.2453
     20 C          62.5969   83.4612   10.9561 C.ar    1  UNL1        0.0858
     21 C          63.7448   82.9677   10.1263 C.ar    1  UNL1        0.0530
     22 S          63.9117   81.5008   10.3916 S.2     1  UNL1       -0.0705
     23 C          62.4104   79.5100   13.3985 C.3     1  UNL1        0.0069
     24 C          62.6692   79.7057   11.9340 C.3     1  UNL1        0.0465
     25 C          62.7303   78.5194   11.0181 C.3     1  UNL1        0.0069
     26 C          64.1430   91.9924   12.7188 C.3     1  UNL1        0.0216
     27 C          63.5887   90.9105   13.5976 C.3     1  UNL1        0.0217
     28 C          64.2693   90.5724   14.8908 C.3     1  UNL1        0.0792
     29 N          64.2497   89.1625   15.4024 N.am    1  UNL1       -0.2720
     30 C          63.0528   88.6521   16.1488 C.2     1  UNL1        0.4019
     31 O          61.8756   89.5516   16.3836 O.2     1  UNL1       -0.2264
     32 H          65.0223   88.5721   15.2483 H       1  UNL1        0.1527
     33 O          63.0331   87.2421   16.6604 O.3     1  UNL1       -0.4291
     34 C          64.0573   86.2563   16.1819 C.3     1  UNL1        0.2447
     35 C          63.6346   84.8797   15.7621 C.ar    1  UNL1        0.0714
     36 C          64.5500   83.7534   15.3832 C.ar    1  UNL1        0.1053
     37 N          63.7033   82.5653   15.0344 N.ar    1  UNL1       -0.2350
     38 C          62.2647   82.9573   15.1977 C.ar    1  UNL1        0.1343
     39 S          62.2222   84.3877   15.6474 S.2     1  UNL1       -0.0652
     40 C          64.9696   91.6441   15.6724 C.3     1  UNL1        0.0460
     41 C          66.3913   91.9989   15.3516 C.ar    1  UNL1       -0.0205
     42 C          66.9972   91.5648   14.0499 C.ar    1  UNL1       -0.0042
     43 C          68.4188   91.9196   13.7291 C.ar    1  UNL1       -0.0003
     44 C          69.2346   92.7085   14.7100 C.ar    1  UNL1       -0.0000
     45 C          68.6287   93.1427   16.0116 C.ar    1  UNL1       -0.0003
     46 C          67.2071   92.7879   16.3324 C.ar    1  UNL1       -0.0042
     47 C          64.5270   92.9878   10.3499 C.3     1  UNL1        0.0459
     48 C          65.9872   93.1173   10.0316 C.ar    1  UNL1       -0.0205
     49 C          66.5165   94.3917    9.4438 C.ar    1  UNL1       -0.0042
     50 C          67.9766   94.5212    9.1255 C.ar    1  UNL1       -0.0003
     51 C          68.9074   93.3763    9.3950 C.ar    1  UNL1       -0.0000
     52 C          68.3781   92.1017    9.9829 C.ar    1  UNL1       -0.0003
     53 C          66.9179   91.9722   10.3011 C.ar    1  UNL1       -0.0042
@<TRIPOS>BOND
     1    23    24    1
     2    24    25    1
     3    24    18    1
     4    18    19   ar
     5    19    20   ar
     6    20    17    1
     7    17     6    1
     8     6     7    1
     9     6     8   am
    10     8     9    2
    11     8    10   am
    12    10    11    1
    13    11    12    1
    14    12    13    1
    15    12    14    1
    16    14    15    1
    17    15     2    1
    18     2     3    2
    19     2     4   am
    20     4     1    1
    21     1    26    1
    22    26    27    1
    23    28    27    1
    24    28    40    1
    25    40    41    1
    26    41    42   ar
    27    42    43   ar
    28    43    44   ar
    29    44    45   ar
    30    45    46   ar
    31    28    29    1
    32    29    30   am
    33    30    31    2
    34    30    33    1
    35    33    34    1
    36    34    35    1
    37    35    36   ar
    38    36    37   ar
    39    37    38   ar
    40    38    39   ar
    41     1    47    1
    42    47    48    1
    43    48    49   ar
    44    49    50   ar
    45    50    51   ar
    46    51    52   ar
    47    52    53   ar
    48    20    21   ar
    49    21    22   ar
    50    22    18   ar
    51    15    10    1
    52    46    41   ar
    53    39    35   ar
    54    53    48   ar
    55    13    16    1
    56     4     5    1
    57    29    32    1
@<TRIPOS>MOLECULE
*****
 53 57 0 0 0
SMALL
GASTEIGER

@<TRIPOS>ATOM
      1 C          64.0512   91.7246   11.2822 C.3     1  UNL1        0.0760
      2 C          61.9855   90.3024   10.6039 C.2     1  UNL1        0.2407
      3 O          61.0762   91.3587   11.1582 O.2     1  UNL1       -0.2733
      4 N          63.4730   90.4853   10.6659 N.am    1  UNL1       -0.3043
      5 H          64.0698   89.7920   10.3021 H       1  UNL1        0.1494
      6 N          62.7353   85.7810   11.8812 N.am    1  UNL1       -0.2566
      7 C          63.6267   85.3634   13.0128 C.3     1  UNL1        0.1168
      8 C          62.5652   87.2358   11.5579 C.2     1  UNL1        0.3079
      9 O          63.2866   88.2731   12.3665 O.2     1  UNL1       -0.2523
     10 N          61.6738   87.6535   10.4262 N.am    1  UNL1       -0.2547
     11 C          60.8922   86.7350    9.5342 C.3     1  UNL1        0.1245
     12 C          60.1427   87.5768    8.5444 C.3     1  UNL1        0.1325
     13 O          59.2345   87.0690    7.4642 O.3     1  UNL1       -0.3826
     14 C          60.4611   89.0156    8.8247 C.3     1  UNL1        0.0602
     15 C          61.4073   89.0631    9.9877 C.3     1  UNL1        0.1555
     16 H          59.2012   86.1002    7.4987 H       1  UNL1        0.2104
     17 C          62.0139   84.7438   11.0725 C.3     1  UNL1        0.1413
     18 C          62.8554   80.9674   11.3822 C.ar    1  UNL1        0.0875
     19 N          62.0276   82.1603   11.7585 N.ar    1  UNL1       -0.2453
     20 C          62.5488   83.3443   10.9991 C.ar    1  UNL1        0.0858
     21 C          63.6986   82.8831   10.1536 C.ar    1  UNL1        0.0530
     22 S          63.8882   81.4141   10.3903 S.2     1  UNL1       -0.0705
     23 C          62.4610   79.3440   13.3719 C.3     1  UNL1        0.0069
     24 C          62.6811   79.5726   11.9059 C.3     1  UNL1        0.0465
     25 C          62.7269   78.4065   10.9636 C.3     1  UNL1        0.0069
     26 C          64.2926   91.7842   12.7614 C.3     1  UNL1        0.0216
     27 C          63.5587   90.8520   13.6791 C.3     1  UNL1        0.0217
     28 C          64.0188   90.6781   15.0963 C.3     1  UNL1        0.0792
     29 N          65.3490   91.2229   15.5251 N.am    1  UNL1       -0.2720
     30 C          65.4143   92.3593   16.5020 C.2     1  UNL1        0.4019
     31 O          64.1496   92.9509   17.0501 O.2     1  UNL1       -0.2264
     32 H          66.1791   90.8346   15.1654 H       1  UNL1        0.1527
     33 O          66.7445   92.9041   16.9309 O.3     1  UNL1       -0.4291
     34 C          67.5983   93.6547   15.9524 C.3     1  UNL1        0.2447
     35 C          68.3492   92.9113   14.8877 C.ar    1  UNL1        0.0714
     36 C          69.8378   92.7417   14.8138 C.ar    1  UNL1        0.1053
     37 N          70.1520   91.9326   13.5904 N.ar    1  UNL1       -0.2350
     38 C          68.8576   91.6022   12.9082 C.ar    1  UNL1        0.1343
     39 S          67.7435   92.2071   13.7099 S.2     1  UNL1       -0.0652
     40 C          63.1488   89.9594   16.0844 C.3     1  UNL1        0.0460
     41 C          63.3220   88.4856   16.3036 C.ar    1  UNL1       -0.0205
     42 C          62.6215   87.8096   17.4448 C.ar    1  UNL1       -0.0042
     43 C          62.7948   86.3359   17.6639 C.ar    1  UNL1       -0.0003
     44 C          63.6685   85.5381   16.7418 C.ar    1  UNL1       -0.0000
     45 C          64.3690   86.2141   15.6006 C.ar    1  UNL1       -0.0003
     46 C          64.1957   87.6879   15.3815 C.ar    1  UNL1       -0.0042
     47 C          64.3881   92.9044   10.4191 C.3     1  UNL1        0.0459
     48 C          65.8141   93.1731   10.0395 C.ar    1  UNL1       -0.0205
     49 C          66.8056   92.0481   10.0041 C.ar    1  UNL1       -0.0042
     50 C          68.2317   92.3168    9.6245 C.ar    1  UNL1       -0.0003
     51 C          68.6663   93.7106    9.2803 C.ar    1  UNL1       -0.0000
     52 C          67.6748   94.8357    9.3157 C.ar    1  UNL1       -0.0003
     53 C          66.2487   94.5670    9.6953 C.ar    1  UNL1       -0.0042
@<TRIPOS>BOND
     1    23    24    1
     2    24    25    1
     3    24    18    1
     4    18    19   ar
     5    19    20   ar
     6    20    17    1
     7    17     6    1
     8     6     7    1
     9     6     8   am
    10     8     9    2
    11     8    10   am
    12    10    11    1
    13    11    12    1
    14    12    13    1
    15    12    14    1
    16    14    15    1
    17    15     2    1
    18     2     3    2
    19     2     4   am
    20     4     1    1
    21     1    26    1
    22    26    27    1
    23    28    27    1
    24    28    40    1
    25    40    41    1
    26    41    42   ar
    27    42    43   ar
    28    43    44   ar
    29    44    45   ar
    30    45    46   ar
    31    28    29    1
    32    29    30   am
    33    30    31    2
    34    30    33    1
    35    33    34    1
    36    34    35    1
    37    35    36   ar
    38    36    37   ar
    39    37    38   ar
    40    38    39   ar
    41     1    47    1
    42    47    48    1
    43    48    49   ar
    44    49    50   ar
    45    50    51   ar
    46    51    52   ar
    47    52    53   ar
    48    20    21   ar
    49    21    22   ar
    50    22    18   ar
    51    15    10    1
    52    46    41   ar
    53    39    35   ar
    54    53    48   ar
    55    13    16    1
    56     4     5    1
    57    29    32    1
@<TRIPOS>MOLECULE
*****
 53 57 0 0 0
SMALL
GASTEIGER

@<TRIPOS>ATOM
      1 C          63.2686   86.0093   13.0317 C.3     1  UNL1        0.0760
      2 C          63.9007   88.1000   14.4386 C.2     1  UNL1        0.2407
      3 O          63.3574   87.4362   15.6691 O.2     1  UNL1       -0.2733
      4 N          63.8563   87.3866   13.1199 N.am    1  UNL1       -0.3043
      5 H          64.2129   87.8222   12.3122 H       1  UNL1        0.1494
      6 N          63.7782   91.5445   11.1589 N.am    1  UNL1       -0.2566
      7 C          63.1152   91.4083    9.8204 C.3     1  UNL1        0.1168
      8 C          63.7612   90.3968   12.1246 C.2     1  UNL1        0.3079
      9 O          63.0811   89.1129   11.7516 O.2     1  UNL1       -0.2523
     10 N          64.4243   90.5330   13.4631 N.am    1  UNL1       -0.2547
     11 C          65.1396   91.7488   13.9731 C.3     1  UNL1        0.1245
     12 C          65.6459   91.4445   15.3519 C.3     1  UNL1        0.1325
     13 O          66.4188   92.3799   16.2336 O.3     1  UNL1       -0.3826
     14 C          65.2434   90.0407   15.6941 C.3     1  UNL1        0.0602
     15 C          64.4884   89.4773   14.5268 C.3     1  UNL1        0.1555
     16 H          66.5464   93.2252   15.7752 H       1  UNL1        0.2104
     17 C          64.4583   92.8284   11.5318 C.3     1  UNL1        0.1413
     18 C          66.5017   94.9700    9.0212 C.ar    1  UNL1        0.0875
     19 N          65.2616   94.7258    9.8290 N.ar    1  UNL1       -0.2453
     20 C          65.4515   93.4505   10.5956 C.ar    1  UNL1        0.0858
     21 C          66.8089   92.9066   10.2616 C.ar    1  UNL1        0.0530
     22 S          67.4580   93.8457    9.2885 S.2     1  UNL1       -0.0705
     23 C          68.0579   96.8553    8.1414 C.3     1  UNL1        0.0069
     24 C          66.7431   96.1341    8.1065 C.3     1  UNL1        0.0465
     25 C          65.6697   96.5772    7.1570 C.3     1  UNL1        0.0069
     26 C          61.8853   85.8178   12.4842 C.3     1  UNL1        0.0216
     27 C          61.2977   86.8398   11.5568 C.3     1  UNL1        0.0217
     28 C          61.7785   86.9303   10.1387 C.3     1  UNL1        0.0792
     29 N          61.4465   88.1354    9.3097 N.am    1  UNL1       -0.2720
     30 C          60.0640   88.3049    8.7527 C.2     1  UNL1        0.4019
     31 O          59.0137   87.2692    9.0248 O.2     1  UNL1       -0.2264
     32 H          62.1359   88.8152    9.1311 H       1  UNL1        0.1527
     33 O          59.7320   89.5101    7.9237 O.3     1  UNL1       -0.4291
     34 C          59.2527   89.3408    6.5125 C.3     1  UNL1        0.2447
     35 C          59.1397   90.5339    5.6105 C.ar    1  UNL1        0.0714
     36 C          57.8722   91.2515    5.2523 C.ar    1  UNL1        0.1053
     37 N          58.2235   92.3801    4.3288 N.ar    1  UNL1       -0.2350
     38 C          59.7082   92.3600    4.1162 C.ar    1  UNL1        0.1343
     39 S          60.2745   91.2190    4.9083 S.2     1  UNL1       -0.0652
     40 C          62.5914   85.8156    9.5498 C.3     1  UNL1        0.0460
     41 C          62.2777   85.3039    8.1751 C.ar    1  UNL1       -0.0205
     42 C          63.3872   84.8577    7.2697 C.ar    1  UNL1       -0.0042
     43 C          63.0735   84.3460    5.8951 C.ar    1  UNL1       -0.0003
     44 C          61.6502   84.2804    5.4259 C.ar    1  UNL1       -0.0000
     45 C          60.5407   84.7265    6.3313 C.ar    1  UNL1       -0.0003
     46 C          60.8545   85.2383    7.7060 C.ar    1  UNL1       -0.0042
     47 C          64.0643   84.8235   13.4910 C.3     1  UNL1        0.0459
     48 C          63.5688   83.4351   13.2142 C.ar    1  UNL1       -0.0205
     49 C          63.0040   82.6043   14.3282 C.ar    1  UNL1       -0.0042
     50 C          62.5085   81.2159   14.0514 C.ar    1  UNL1       -0.0003
     51 C          62.5777   80.6581   12.6607 C.ar    1  UNL1       -0.0000
     52 C          63.1424   81.4889   11.5467 C.ar    1  UNL1       -0.0003
     53 C          63.6380   82.8773   11.8235 C.ar    1  UNL1       -0.0042
@<TRIPOS>BOND
     1    23    24    1
     2    24    25    1
     3    24    18    1
     4    18    19   ar
     5    19    20   ar
     6    20    17    1
     7    17     6    1
     8     6     7    1
     9     6     8   am
    10     8     9    2
    11     8    10   am
    12    10    11    1
    13    11    12    1
    14    12    13    1
    15    12    14    1
    16    14    15    1
    17    15     2    1
    18     2     3    2
    19     2     4   am
    20     4     1    1
    21     1    26    1
    22    26    27    1
    23    28    27    1
    24    28    40    1
    25    40    41    1
    26    41    42   ar
    27    42    43   ar
    28    43    44   ar
    29    44    45   ar
    30    45    46   ar
    31    28    29    1
    32    29    30   am
    33    30    31    2
    34    30    33    1
    35    33    34    1
    36    34    35    1
    37    35    36   ar
    38    36    37   ar
    39    37    38   ar
    40    38    39   ar
    41     1    47    1
    42    47    48    1
    43    48    49   ar
    44    49    50   ar
    45    50    51   ar
    46    51    52   ar
    47    52    53   ar
    48    20    21   ar
    49    21    22   ar
    50    22    18   ar
    51    15    10    1
    52    46    41   ar
    53    39    35   ar
    54    53    48   ar
    55    13    16    1
    56     4     5    1
    57    29    32    1
@<TRIPOS>MOLECULE
*****
 53 57 0 0 0
SMALL
GASTEIGER

@<TRIPOS>ATOM
      1 C          62.1597   88.7416   11.0786 C.3     1  UNL1        0.0760
      2 C          62.6943   86.3254   10.2873 C.2     1  UNL1        0.2407
      3 O          62.2614   86.6849    8.8969 O.2     1  UNL1       -0.2733
      4 N          62.6435   87.3538   11.3782 N.am    1  UNL1       -0.3043
      5 H          62.9277   87.1178   12.2908 H       1  UNL1        0.1494
      6 N          63.0358   84.2028   14.5316 N.am    1  UNL1       -0.2566
      7 C          62.6580   84.8522   15.8298 C.3     1  UNL1        0.1168
      8 C          62.8905   84.9589   13.2443 C.2     1  UNL1        0.3079
      9 O          62.3673   86.3648   13.2553 O.2     1  UNL1       -0.2523
     10 N          63.2683   84.3095   11.9462 N.am    1  UNL1       -0.2547
     11 C          63.8027   82.9178   11.7791 C.3     1  UNL1        0.1245
     12 C          64.0427   82.6858   10.3168 C.3     1  UNL1        0.1325
     13 O          64.5752   81.4267    9.6996 O.3     1  UNL1       -0.3826
     14 C          63.6568   83.9341    9.5799 C.3     1  UNL1        0.0602
     15 C          63.1782   84.9375   10.5869 C.3     1  UNL1        0.1555
     16 H          64.7450   80.7724   10.3953 H       1  UNL1        0.2104
     17 C          63.5590   82.7969   14.5206 C.3     1  UNL1        0.1413
     18 C          60.6130   80.2929   14.1804 C.ar    1  UNL1        0.0875
     19 N          61.1522   81.6355   14.5761 N.ar    1  UNL1       -0.2453
     20 C          62.6226   81.6501   14.2801 C.ar    1  UNL1        0.0858
     21 C          62.9922   80.3165   13.7014 C.ar    1  UNL1        0.0530
     22 S          61.7503   79.4776   13.6397 S.2     1  UNL1       -0.0705
     23 C          58.0726   80.8364   14.1504 C.3     1  UNL1        0.0069
     24 C          59.1870   79.8442   14.3036 C.3     1  UNL1        0.0465
     25 C          58.8754   78.4032   14.5800 C.3     1  UNL1        0.0069
     26 C          63.1375   89.8764   11.0012 C.3     1  UNL1        0.0216
     27 C          63.1592   90.9223   12.0762 C.3     1  UNL1        0.0217
     28 C          64.4658   91.4982   12.5361 C.3     1  UNL1        0.0792
     29 N          64.9839   92.7656   11.9234 N.am    1  UNL1       -0.2720
     30 C          65.8226   93.7045   12.7389 C.2     1  UNL1        0.4019
     31 O          66.1432   93.3761   14.1670 O.2     1  UNL1       -0.2264
     32 H          64.7734   92.9811   10.9862 H       1  UNL1        0.1527
     33 O          66.3407   94.9719   12.1263 O.3     1  UNL1       -0.4291
     34 C          66.3538   95.1334   10.6351 C.3     1  UNL1        0.2447
     35 C          67.2056   94.2328    9.7906 C.ar    1  UNL1        0.0714
     36 C          67.4444   94.3726    8.3163 C.ar    1  UNL1        0.1053
     37 N          68.3546   93.2604    7.8867 N.ar    1  UNL1       -0.2350
     38 C          68.6785   92.4333    9.0954 C.ar    1  UNL1        0.1343
     39 S          67.9683   93.0343   10.2721 S.2     1  UNL1       -0.0652
     40 C          65.2541   90.8066   13.6085 C.3     1  UNL1        0.0460
     41 C          64.5437   90.0588   14.6976 C.ar    1  UNL1       -0.0205
     42 C          63.8649   90.8106   15.8040 C.ar    1  UNL1       -0.0042
     43 C          63.1544   90.0628   16.8930 C.ar    1  UNL1       -0.0003
     44 C          63.1228   88.5632   16.8757 C.ar    1  UNL1       -0.0000
     45 C          63.8016   87.8115   15.7693 C.ar    1  UNL1       -0.0003
     46 C          64.5120   88.5593   14.6803 C.ar    1  UNL1       -0.0042
     47 C          60.6979   88.9947   10.8564 C.3     1  UNL1        0.0459
     48 C          60.0688   88.6496    9.5392 C.ar    1  UNL1       -0.0205
     49 C          59.3835   87.3276    9.3588 C.ar    1  UNL1       -0.0042
     50 C          58.7543   86.9825    8.0415 C.ar    1  UNL1       -0.0003
     51 C          58.8105   87.9594    6.9047 C.ar    1  UNL1       -0.0000
     52 C          59.4958   89.2815    7.0851 C.ar    1  UNL1       -0.0003
     53 C          60.1249   89.6266    8.4023 C.ar    1  UNL1       -0.0042
@<TRIPOS>BOND
     1    23    24    1
     2    24    25    1
     3    24    18    1
     4    18    19   ar
     5    19    20   ar
     6    20    17    1
     7    17     6    1
     8     6     7    1
     9     6     8   am
    10     8     9    2
    11     8    10   am
    12    10    11    1
    13    11    12    1
    14    12    13    1
    15    12    14    1
    16    14    15    1
    17    15     2    1
    18     2     3    2
    19     2     4   am
    20     4     1    1
    21     1    26    1
    22    26    27    1
    23    28    27    1
    24    28    40    1
    25    40    41    1
    26    41    42   ar
    27    42    43   ar
    28    43    44   ar
    29    44    45   ar
    30    45    46   ar
    31    28    29    1
    32    29    30   am
    33    30    31    2
    34    30    33    1
    35    33    34    1
    36    34    35    1
    37    35    36   ar
    38    36    37   ar
    39    37    38   ar
    40    38    39   ar
    41     1    47    1
    42    47    48    1
    43    48    49   ar
    44    49    50   ar
    45    50    51   ar
    46    51    52   ar
    47    52    53   ar
    48    20    21   ar
    49    21    22   ar
    50    22    18   ar
    51    15    10    1
    52    46    41   ar
    53    39    35   ar
    54    53    48   ar
    55    13    16    1
    56     4     5    1
    57    29    32    1
@<TRIPOS>MOLECULE
*****
 53 57 0 0 0
SMALL
GASTEIGER

@<TRIPOS>ATOM
      1 C          62.3004   88.6150   10.7436 C.3     1  UNL1        0.0760
      2 C          62.7691   86.1366   10.1206 C.2     1  UNL1        0.2407
      3 O          62.3400   86.4101    8.7096 O.2     1  UNL1       -0.2733
      4 N          62.7494   87.2390   11.1377 N.am    1  UNL1       -0.3043
      5 H          63.0310   87.0595   12.0638 H       1  UNL1        0.1494
      6 N          63.2858   84.3771   14.5108 N.am    1  UNL1       -0.2566
      7 C          63.0111   85.1521   15.7653 C.3     1  UNL1        0.1168
      8 C          63.0916   85.0244   13.1716 C.2     1  UNL1        0.3079
      9 O          62.6227   86.4468   13.0871 O.2     1  UNL1       -0.2523
     10 N          63.3663   84.2495   11.9171 N.am    1  UNL1       -0.2547
     11 C          63.8375   82.8272   11.8446 C.3     1  UNL1        0.1245
     12 C          63.9804   82.4594   10.3974 C.3     1  UNL1        0.1325
     13 O          64.4277   81.1301    9.8657 O.3     1  UNL1       -0.3826
     14 C          63.5976   83.6544    9.5755 C.3     1  UNL1        0.0602
     15 C          63.2181   84.7607   10.5146 C.3     1  UNL1        0.1555
     16 H          64.6144   80.5319   10.6061 H       1  UNL1        0.2104
     17 C          63.7546   82.9547   14.5953 C.3     1  UNL1        0.1413
     18 C          60.7606   80.5227   14.1647 C.ar    1  UNL1        0.0875
     19 N          61.3213   81.8485   14.5861 N.ar    1  UNL1       -0.2453
     20 C          62.7979   81.8322   14.3225 C.ar    1  UNL1        0.0858
     21 C          63.1497   80.4963   13.7381 C.ar    1  UNL1        0.0530
     22 S          61.8906   79.6869   13.6406 S.2     1  UNL1       -0.0705
     23 C          58.9717   78.6917   14.6092 C.3     1  UNL1        0.0069
     24 C          59.3223   80.1057   14.2520 C.3     1  UNL1        0.0465
     25 C          58.2346   81.1028   13.9822 C.3     1  UNL1        0.0069
     26 C          63.3150   89.6859   10.4722 C.3     1  UNL1        0.0216
     27 C          63.2102   91.0114   11.1663 C.3     1  UNL1        0.0217
     28 C          64.3727   91.5398   11.9535 C.3     1  UNL1        0.0792
     29 N          64.1775   91.9837   13.3730 N.am    1  UNL1       -0.2720
     30 C          64.3273   90.9985   14.4942 C.2     1  UNL1        0.4019
     31 O          64.6722   89.5695   14.1959 O.2     1  UNL1       -0.2264
     32 H          63.9512   92.9216   13.5688 H       1  UNL1        0.1527
     33 O          64.1321   91.4424   15.9137 O.3     1  UNL1       -0.4291
     34 C          65.1474   92.3319   16.5677 C.3     1  UNL1        0.2447
     35 C          66.4368   92.6406   15.8662 C.ar    1  UNL1        0.0714
     36 C          66.5825   93.4119   14.5880 C.ar    1  UNL1        0.1053
     37 N          68.0427   93.4802   14.2515 N.ar    1  UNL1       -0.2350
     38 C          68.7995   92.7510   15.3218 C.ar    1  UNL1        0.1343
     39 S          67.8070   92.2321   16.3197 S.2     1  UNL1       -0.0652
     40 C          65.7303   91.6242   11.3212 C.3     1  UNL1        0.0460
     41 C          66.2117   92.9246   10.7492 C.ar    1  UNL1       -0.0205
     42 C          65.5463   94.2097   11.1439 C.ar    1  UNL1       -0.0042
     43 C          66.0277   95.5100   10.5718 C.ar    1  UNL1       -0.0003
     44 C          67.1745   95.5253    9.6050 C.ar    1  UNL1       -0.0000
     45 C          67.8399   94.2403    9.2103 C.ar    1  UNL1       -0.0003
     46 C          67.3585   92.9399    9.7824 C.ar    1  UNL1       -0.0042
     47 C          60.8368   88.9199   10.6210 C.3     1  UNL1        0.0459
     48 C          60.1135   88.6232    9.3409 C.ar    1  UNL1       -0.0205
     49 C          59.4125   87.3091    9.1628 C.ar    1  UNL1       -0.0042
     50 C          58.6892   87.0123    7.8826 C.ar    1  UNL1       -0.0003
     51 C          58.6670   88.0296    6.7806 C.ar    1  UNL1       -0.0000
     52 C          59.3681   89.3438    6.9586 C.ar    1  UNL1       -0.0003
     53 C          60.0913   89.6405    8.2388 C.ar    1  UNL1       -0.0042
@<TRIPOS>BOND
     1    23    24    1
     2    24    25    1
     3    24    18    1
     4    18    19   ar
     5    19    20   ar
     6    20    17    1
     7    17     6    1
     8     6     7    1
     9     6     8   am
    10     8     9    2
    11     8    10   am
    12    10    11    1
    13    11    12    1
    14    12    13    1
    15    12    14    1
    16    14    15    1
    17    15     2    1
    18     2     3    2
    19     2     4   am
    20     4     1    1
    21     1    26    1
    22    26    27    1
    23    28    27    1
    24    28    40    1
    25    40    41    1
    26    41    42   ar
    27    42    43   ar
    28    43    44   ar
    29    44    45   ar
    30    45    46   ar
    31    28    29    1
    32    29    30   am
    33    30    31    2
    34    30    33    1
    35    33    34    1
    36    34    35    1
    37    35    36   ar
    38    36    37   ar
    39    37    38   ar
    40    38    39   ar
    41     1    47    1
    42    47    48    1
    43    48    49   ar
    44    49    50   ar
    45    50    51   ar
    46    51    52   ar
    47    52    53   ar
    48    20    21   ar
    49    21    22   ar
    50    22    18   ar
    51    15    10    1
    52    46    41   ar
    53    39    35   ar
    54    53    48   ar
    55    13    16    1
    56     4     5    1
    57    29    32    1
@<TRIPOS>MOLECULE
*****
 53 57 0 0 0
SMALL
GASTEIGER

@<TRIPOS>ATOM
      1 C          62.8886   84.0955   11.2097 C.3     1  UNL1        0.0760
      2 C          63.7408   85.0774   13.4591 C.2     1  UNL1        0.2407
      3 O          64.9029   84.1293   13.4326 O.2     1  UNL1       -0.2733
      4 N          62.7336   85.0605   12.3476 N.am    1  UNL1       -0.3043
      5 H          61.9709   85.6827   12.3649 H       1  UNL1        0.1494
      6 N          63.4616   89.8222   13.2488 N.am    1  UNL1       -0.2566
      7 C          63.5180   90.6126   11.9753 C.3     1  UNL1        0.1168
      8 C          63.5585   88.3259   13.2080 C.2     1  UNL1        0.3079
      9 O          63.7120   87.6200   11.8933 O.2     1  UNL1       -0.2523
     10 N          63.5021   87.5356   14.4815 N.am    1  UNL1       -0.2547
     11 C          63.3519   88.0996   15.8634 C.3     1  UNL1        0.1245
     12 C          63.3429   86.9550   16.8328 C.3     1  UNL1        0.1325
     13 O          63.2122   87.0629   18.3231 O.3     1  UNL1       -0.3826
     14 C          63.4875   85.6835   16.0501 C.3     1  UNL1        0.0602
     15 C          63.5859   86.0423   14.5970 C.3     1  UNL1        0.1555
     16 H          63.1330   87.9965   18.5740 H       1  UNL1        0.2104
     17 C          63.3081   90.5282   14.5635 C.3     1  UNL1        0.1413
     18 C          66.6483   92.3041   15.4320 C.ar    1  UNL1        0.0875
     19 N          65.8054   91.4794   14.5049 N.ar    1  UNL1       -0.2453
     20 C          64.4617   91.2909   15.1444 C.ar    1  UNL1        0.0858
     21 C          64.4741   91.9991   16.4665 C.ar    1  UNL1        0.0530
     22 S          65.8255   92.6253   16.6444 S.2     1  UNL1       -0.0705
     23 C          68.8725   92.0762   14.1086 C.3     1  UNL1        0.0069
     24 C          68.0652   92.7324   15.1893 C.3     1  UNL1        0.0465
     25 C          68.6750   93.8168   16.0272 C.3     1  UNL1        0.0069
     26 C          62.3993   84.4653    9.8408 C.3     1  UNL1        0.0216
     27 C          62.5579   85.8710    9.3420 C.3     1  UNL1        0.0217
     28 C          61.3963   86.8190    9.3888 C.3     1  UNL1        0.0792
     29 N          61.0344   87.6222    8.1748 N.am    1  UNL1       -0.2720
     30 C          59.6411   87.5602    7.6225 C.2     1  UNL1        0.4019
     31 O          58.6098   86.6951    8.2842 O.2     1  UNL1       -0.2264
     32 H          61.7113   88.1900    7.7405 H       1  UNL1        0.1527
     33 O          59.2792   88.3634    6.4084 O.3     1  UNL1       -0.4291
     34 C          58.8053   89.7785    6.5593 C.3     1  UNL1        0.2447
     35 C          59.0991   90.7861    5.4876 C.ar    1  UNL1        0.0714
     36 C          58.0920   91.6559    4.7953 C.ar    1  UNL1        0.1053
     37 N          58.8220   92.5082    3.7999 N.ar    1  UNL1       -0.2350
     38 C          60.2802   92.1651    3.8770 C.ar    1  UNL1        0.1343
     39 S          60.4514   91.1008    4.9201 S.2     1  UNL1       -0.0652
     40 C          60.5967   86.9637   10.6496 C.3     1  UNL1        0.0460
     41 C          60.0693   88.3088   11.0530 C.ar    1  UNL1       -0.0205
     42 C          59.1072   88.4246   12.1980 C.ar    1  UNL1       -0.0042
     43 C          58.5798   89.7697   12.6013 C.ar    1  UNL1       -0.0003
     44 C          59.0144   90.9989   11.8596 C.ar    1  UNL1       -0.0000
     45 C          59.9764   90.8831   10.7145 C.ar    1  UNL1       -0.0003
     46 C          60.5038   89.5380   10.3113 C.ar    1  UNL1       -0.0042
     47 C          63.5329   82.7607   11.4407 C.3     1  UNL1        0.0459
     48 C          62.8385   81.7275   12.2776 C.ar    1  UNL1       -0.0205
     49 C          62.9757   80.2726   11.9395 C.ar    1  UNL1       -0.0042
     50 C          62.2813   79.2395   12.7764 C.ar    1  UNL1       -0.0003
     51 C          61.4498   79.6612   13.9514 C.ar    1  UNL1       -0.0000
     52 C          61.3125   81.1162   14.2895 C.ar    1  UNL1       -0.0003
     53 C          62.0069   82.1494   13.4526 C.ar    1  UNL1       -0.0042
@<TRIPOS>BOND
     1    23    24    1
     2    24    25    1
     3    24    18    1
     4    18    19   ar
     5    19    20   ar
     6    20    17    1
     7    17     6    1
     8     6     7    1
     9     6     8   am
    10     8     9    2
    11     8    10   am
    12    10    11    1
    13    11    12    1
    14    12    13    1
    15    12    14    1
    16    14    15    1
    17    15     2    1
    18     2     3    2
    19     2     4   am
    20     4     1    1
    21     1    26    1
    22    26    27    1
    23    28    27    1
    24    28    40    1
    25    40    41    1
    26    41    42   ar
    27    42    43   ar
    28    43    44   ar
    29    44    45   ar
    30    45    46   ar
    31    28    29    1
    32    29    30   am
    33    30    31    2
    34    30    33    1
    35    33    34    1
    36    34    35    1
    37    35    36   ar
    38    36    37   ar
    39    37    38   ar
    40    38    39   ar
    41     1    47    1
    42    47    48    1
    43    48    49   ar
    44    49    50   ar
    45    50    51   ar
    46    51    52   ar
    47    52    53   ar
    48    20    21   ar
    49    21    22   ar
    50    22    18   ar
    51    15    10    1
    52    46    41   ar
    53    39    35   ar
    54    53    48   ar
    55    13    16    1
    56     4     5    1
    57    29    32    1
@<TRIPOS>MOLECULE
*****
 53 57 0 0 0
SMALL
GASTEIGER

@<TRIPOS>ATOM
      1 C          62.3011   89.3704   10.2686 C.3     1  UNL1        0.0760
      2 C          62.1601   86.9008   11.0633 C.2     1  UNL1        0.2407
      3 O          60.8449   87.1887   11.7246 O.2     1  UNL1       -0.2733
      4 N          62.8882   87.9917   10.3353 N.am    1  UNL1       -0.3043
      5 H          63.7515   87.8027    9.9012 H       1  UNL1        0.1494
      6 N          63.2062   84.3552   14.9442 N.am    1  UNL1       -0.2566
      7 C          62.9877   84.8343   16.3486 C.3     1  UNL1        0.1168
      8 C          62.8423   85.2361   13.7859 C.2     1  UNL1        0.3079
      9 O          62.2599   86.5963   14.0323 O.2     1  UNL1       -0.2523
     10 N          63.0608   84.7569   12.3815 N.am    1  UNL1       -0.2547
     11 C          63.6312   83.4284   11.9818 C.3     1  UNL1        0.1245
     12 C          63.6702   83.3725   10.4834 C.3     1  UNL1        0.1325
     13 O          64.1681   82.2243    9.6566 O.3     1  UNL1       -0.3826
     14 C          63.1239   84.6665    9.9569 C.3     1  UNL1        0.0602
     15 C          62.7472   85.5221   11.1300 C.3     1  UNL1        0.1555
     16 H          64.4666   81.5103   10.2414 H       1  UNL1        0.2104
     17 C          63.7886   82.9949   14.6979 C.3     1  UNL1        0.1413
     18 C          60.9083   80.4460   14.1765 C.ar    1  UNL1        0.0875
     19 N          61.4036   81.7905   14.6202 N.ar    1  UNL1       -0.2453
     20 C          62.8857   81.8363   14.3939 C.ar    1  UNL1        0.0858
     21 C          63.3064   80.5201   13.8105 C.ar    1  UNL1        0.0530
     22 S          62.0843   79.6607   13.6761 S.2     1  UNL1       -0.0705
     23 C          59.1891   78.5177   14.4526 C.3     1  UNL1        0.0069
     24 C          59.4866   79.9701   14.2248 C.3     1  UNL1        0.0465
     25 C          58.3623   80.9467   14.0452 C.3     1  UNL1        0.0069
     26 C          63.1956   90.5714   10.3540 C.3     1  UNL1        0.0216
     27 C          63.4880   91.1955   11.6863 C.3     1  UNL1        0.0217
     28 C          64.8366   91.7955   11.9536 C.3     1  UNL1        0.0792
     29 N          65.6054   92.4395   10.8382 N.am    1  UNL1       -0.2720
     30 C          67.0964   92.5729   10.9343 C.2     1  UNL1        0.4019
     31 O          67.8185   92.0623   12.1458 O.2     1  UNL1       -0.2264
     32 H          65.1314   92.7747   10.0430 H       1  UNL1        0.1527
     33 O          67.8652   93.2169    9.8189 O.3     1  UNL1       -0.4291
     34 C          67.9689   94.7114    9.7446 C.3     1  UNL1        0.2447
     35 C          66.7492   95.5342    9.4527 C.ar    1  UNL1        0.0714
     36 C          66.3708   96.1076    8.1192 C.ar    1  UNL1        0.1053
     37 N          65.0814   96.8559    8.2854 N.ar    1  UNL1       -0.2350
     38 C          64.6629   96.7450    9.7215 C.ar    1  UNL1        0.1343
     39 S          65.6936   95.9281   10.4429 S.2     1  UNL1       -0.0652
     40 C          65.4162   91.7516   13.3364 C.3     1  UNL1        0.0460
     41 C          64.7422   90.9455   14.4069 C.ar    1  UNL1       -0.0205
     42 C          64.6154   89.4583   14.2582 C.ar    1  UNL1       -0.0042
     43 C          63.9414   88.6523   15.3287 C.ar    1  UNL1       -0.0003
     44 C          63.3943   89.3335   16.5480 C.ar    1  UNL1       -0.0000
     45 C          63.5212   90.8207   16.6968 C.ar    1  UNL1       -0.0003
     46 C          64.1952   91.6267   15.6262 C.ar    1  UNL1       -0.0042
     47 C          60.8194   89.5480   10.1165 C.3     1  UNL1        0.0459
     48 C          60.1136   88.9732    8.9242 C.ar    1  UNL1       -0.0205
     49 C          59.8384   89.8352    7.7279 C.ar    1  UNL1       -0.0042
     50 C          59.1327   89.2604    6.5357 C.ar    1  UNL1       -0.0003
     51 C          58.7021   87.8236    6.5397 C.ar    1  UNL1       -0.0000
     52 C          58.9773   86.9615    7.7360 C.ar    1  UNL1       -0.0003
     53 C          59.6831   87.5363    8.9282 C.ar    1  UNL1       -0.0042
@<TRIPOS>BOND
     1    23    24    1
     2    24    25    1
     3    24    18    1
     4    18    19   ar
     5    19    20   ar
     6    20    17    1
     7    17     6    1
     8     6     7    1
     9     6     8   am
    10     8     9    2
    11     8    10   am
    12    10    11    1
    13    11    12    1
    14    12    13    1
    15    12    14    1
    16    14    15    1
    17    15     2    1
    18     2     3    2
    19     2     4   am
    20     4     1    1
    21     1    26    1
    22    26    27    1
    23    28    27    1
    24    28    40    1
    25    40    41    1
    26    41    42   ar
    27    42    43   ar
    28    43    44   ar
    29    44    45   ar
    30    45    46   ar
    31    28    29    1
    32    29    30   am
    33    30    31    2
    34    30    33    1
    35    33    34    1
    36    34    35    1
    37    35    36   ar
    38    36    37   ar
    39    37    38   ar
    40    38    39   ar
    41     1    47    1
    42    47    48    1
    43    48    49   ar
    44    49    50   ar
    45    50    51   ar
    46    51    52   ar
    47    52    53   ar
    48    20    21   ar
    49    21    22   ar
    50    22    18   ar
    51    15    10    1
    52    46    41   ar
    53    39    35   ar
    54    53    48   ar
    55    13    16    1
    56     4     5    1
    57    29    32    1
@<TRIPOS>MOLECULE
*****
 53 57 0 0 0
SMALL
GASTEIGER

@<TRIPOS>ATOM
      1 C          61.8835   86.8927   10.7614 C.3     1  UNL1        0.0760
      2 C          62.2046   89.4653   10.9311 C.2     1  UNL1        0.2407
      3 O          60.7402   89.6650   10.6752 O.2     1  UNL1       -0.2733
      4 N          62.7763   88.0791   10.9743 N.am    1  UNL1       -0.3043
      5 H          63.7375   87.9481   11.1422 H       1  UNL1        0.1494
      6 N          63.7693   91.2415   15.0582 N.am    1  UNL1       -0.2566
      7 C          63.4272   90.6717   16.4029 C.3     1  UNL1        0.1168
      8 C          63.2237   90.6065   13.8136 C.2     1  UNL1        0.3079
      9 O          62.3359   89.4015   13.9138 O.2     1  UNL1       -0.2523
     10 N          63.5658   91.1763   12.4690 N.am    1  UNL1       -0.2547
     11 C          64.4364   92.3707   12.2130 C.3     1  UNL1        0.1245
     12 C          64.5061   92.5843   10.7300 C.3     1  UNL1        0.1325
     13 O          65.2693   93.6697   10.0305 O.3     1  UNL1       -0.3826
     14 C          63.6785   91.5220   10.0693 C.3     1  UNL1        0.0602
     15 C          63.0974   90.6517   11.1440 C.3     1  UNL1        0.1555
     16 H          65.7194   94.2235   10.6875 H       1  UNL1        0.2104
     17 C          64.6571   92.4465   14.9581 C.3     1  UNL1        0.1413
     18 C          68.4734   92.6056   15.6477 C.ar    1  UNL1        0.0875
     19 N          67.0775   93.1014   15.8840 N.ar    1  UNL1       -0.2453
     20 C          66.1469   92.2888   15.0334 C.ar    1  UNL1        0.0858
     21 C          66.9674   91.2910   14.2714 C.ar    1  UNL1        0.0530
     22 S          68.4054   91.4867   14.6509 S.2     1  UNL1       -0.0705
     23 C          70.5773   92.2282   17.1245 C.3     1  UNL1        0.0069
     24 C          69.7186   93.1358   16.2945 C.3     1  UNL1        0.0465
     25 C          70.1052   94.5734   16.1112 C.3     1  UNL1        0.0069
     26 C          61.9003   85.7563   11.7403 C.3     1  UNL1        0.0216
     27 C          62.0489   84.3465   11.2502 C.3     1  UNL1        0.0217
     28 C          63.3745   83.6520   11.3543 C.3     1  UNL1        0.0792
     29 N          64.3573   84.0662   12.4090 N.am    1  UNL1       -0.2720
     30 C          64.1075   83.7160   13.8460 C.2     1  UNL1        0.4019
     31 O          62.8748   82.9516   14.2283 O.2     1  UNL1       -0.2264
     32 H          65.1664   84.5680   12.1581 H       1  UNL1        0.1527
     33 O          65.0903   84.1302   14.9007 O.3     1  UNL1       -0.4291
     34 C          65.0108   85.5017   15.5029 C.3     1  UNL1        0.2447
     35 C          63.7507   85.9511   16.1813 C.ar    1  UNL1        0.0714
     36 C          62.5810   85.0810   16.5345 C.ar    1  UNL1        0.1053
     37 N          61.5464   85.9415   17.1971 N.ar    1  UNL1       -0.2350
     38 C          62.0767   87.3435   17.2535 C.ar    1  UNL1        0.1343
     39 S          63.4390   87.3494   16.6257 S.2     1  UNL1       -0.0652
     40 C          63.7171   82.5435   10.4037 C.3     1  UNL1        0.0460
     41 C          63.2830   81.1389   10.7017 C.ar    1  UNL1       -0.0205
     42 C          63.1807   80.1342    9.5927 C.ar    1  UNL1       -0.0042
     43 C          62.7466   78.7297    9.8908 C.ar    1  UNL1       -0.0003
     44 C          62.4148   78.3299   11.2979 C.ar    1  UNL1       -0.0000
     45 C          62.5170   79.3346   12.4070 C.ar    1  UNL1       -0.0003
     46 C          62.9511   80.7391   12.1089 C.ar    1  UNL1       -0.0042
     47 C          60.9739   86.8427    9.5696 C.3     1  UNL1        0.0459
     48 C          61.3323   85.9913    8.3879 C.ar    1  UNL1       -0.0205
     49 C          60.2761   85.6009    7.3969 C.ar    1  UNL1       -0.0042
     50 C          60.6345   84.7494    6.2151 C.ar    1  UNL1       -0.0003
     51 C          62.0490   84.2884    6.0243 C.ar    1  UNL1       -0.0000
     52 C          63.1053   84.6787    7.0153 C.ar    1  UNL1       -0.0003
     53 C          62.7469   85.5302    8.1971 C.ar    1  UNL1       -0.0042
@<TRIPOS>BOND
     1    23    24    1
     2    24    25    1
     3    24    18    1
     4    18    19   ar
     5    19    20   ar
     6    20    17    1
     7    17     6    1
     8     6     7    1
     9     6     8   am
    10     8     9    2
    11     8    10   am
    12    10    11    1
    13    11    12    1
    14    12    13    1
    15    12    14    1
    16    14    15    1
    17    15     2    1
    18     2     3    2
    19     2     4   am
    20     4     1    1
    21     1    26    1
    22    26    27    1
    23    28    27    1
    24    28    40    1
    25    40    41    1
    26    41    42   ar
    27    42    43   ar
    28    43    44   ar
    29    44    45   ar
    30    45    46   ar
    31    28    29    1
    32    29    30   am
    33    30    31    2
    34    30    33    1
    35    33    34    1
    36    34    35    1
    37    35    36   ar
    38    36    37   ar
    39    37    38   ar
    40    38    39   ar
    41     1    47    1
    42    47    48    1
    43    48    49   ar
    44    49    50   ar
    45    50    51   ar
    46    51    52   ar
    47    52    53   ar
    48    20    21   ar
    49    21    22   ar
    50    22    18   ar
    51    15    10    1
    52    46    41   ar
    53    39    35   ar
    54    53    48   ar
    55    13    16    1
    56     4     5    1
    57    29    32    1
@<TRIPOS>MOLECULE
*****
 53 57 0 0 0
SMALL
GASTEIGER

@<TRIPOS>ATOM
      1 C          65.7654   92.5153   11.6905 C.3     1  UNL1        0.0760
      2 C          63.6521   91.0049   11.7430 C.2     1  UNL1        0.2407
      3 O          63.2506   91.6123   13.0543 O.2     1  UNL1       -0.2733
      4 N          64.9096   91.4564   11.0610 N.am    1  UNL1       -0.3043
      5 H          65.1731   91.0578   10.2003 H       1  UNL1        0.1494
      6 N          63.2744   86.4293   12.9911 N.am    1  UNL1       -0.2566
      7 C          64.0286   85.8019   14.1256 C.3     1  UNL1        0.1168
      8 C          63.4642   87.8839   12.6777 C.2     1  UNL1        0.3079
      9 O          64.4084   88.7110   13.4990 O.2     1  UNL1       -0.2523
     10 N          62.7099   88.5114   11.5431 N.am    1  UNL1       -0.2547
     11 C          61.7368   87.8145   10.6389 C.3     1  UNL1        0.1245
     12 C          61.2218   88.8184    9.6505 C.3     1  UNL1        0.1325
     13 O          60.2267   88.5517    8.5603 O.3     1  UNL1       -0.3826
     14 C          61.8766   90.1357    9.9438 C.3     1  UNL1        0.0602
     15 C          62.7963   89.9460   11.1134 C.3     1  UNL1        0.1555
     16 H          59.9596   87.6196    8.5873 H       1  UNL1        0.2104
     17 C          62.3301   85.6023   12.1698 C.3     1  UNL1        0.1413
     18 C          62.9252   81.8124   11.5804 C.ar    1  UNL1        0.0875
     19 N          62.2830   82.9351   12.3399 N.ar    1  UNL1       -0.2453
     20 C          62.7309   84.2273   11.7238 C.ar    1  UNL1        0.0858
     21 C          63.6498   83.9032   10.5835 C.ar    1  UNL1        0.0530
     22 S          63.7699   82.4106   10.4947 S.2     1  UNL1       -0.0705
     23 C          62.8326   79.3577   10.7341 C.3     1  UNL1        0.0069
     24 C          62.7529   80.3483   11.8577 C.3     1  UNL1        0.0465
     25 C          62.5010   79.8748   13.2585 C.3     1  UNL1        0.0069
     26 C          66.9805   92.1267   12.4794 C.3     1  UNL1        0.0216
     27 C          66.8414   91.2461   13.6857 C.3     1  UNL1        0.0217
     28 C          66.0265   91.7042   14.8589 C.3     1  UNL1        0.0792
     29 N          64.8312   90.9111   15.2973 N.am    1  UNL1       -0.2720
     30 C          64.0175   91.3682   16.4716 C.2     1  UNL1        0.4019
     31 O          64.3991   92.6183   17.2075 O.2     1  UNL1       -0.2264
     32 H          64.5807   90.0906   14.8143 H       1  UNL1        0.1527
     33 O          62.8221   90.5751   16.9100 O.3     1  UNL1       -0.4291
     34 C          62.3175   89.4472   16.0597 C.3     1  UNL1        0.2447
     35 C          62.2430   88.0588   16.6225 C.ar    1  UNL1        0.0714
     36 C          61.1451   87.0663   16.3787 C.ar    1  UNL1        0.1053
     37 N          61.4769   85.8132   17.1335 N.ar    1  UNL1       -0.2350
     38 C          62.7800   86.0313   17.8438 C.ar    1  UNL1        0.1343
     39 S          63.2534   87.4191   17.5280 S.2     1  UNL1       -0.0652
     40 C          66.4070   92.9554   15.5935 C.3     1  UNL1        0.0460
     41 C          67.8462   93.2263   15.9181 C.ar    1  UNL1       -0.0205
     42 C          68.7262   92.1155   16.4096 C.ar    1  UNL1       -0.0042
     43 C          70.1654   92.3864   16.7341 C.ar    1  UNL1       -0.0003
     44 C          70.7246   93.7682   16.5671 C.ar    1  UNL1       -0.0000
     45 C          69.8446   94.8791   16.0756 C.ar    1  UNL1       -0.0003
     46 C          68.4054   94.6081   15.7510 C.ar    1  UNL1       -0.0042
     47 C          65.4061   93.9630   11.5310 C.3     1  UNL1        0.0459
     48 C          65.9311   94.7416   10.3613 C.ar    1  UNL1       -0.0205
     49 C          67.0486   94.1844    9.5302 C.ar    1  UNL1       -0.0042
     50 C          67.5736   94.9630    8.3605 C.ar    1  UNL1       -0.0003
     51 C          66.9811   96.2987    8.0219 C.ar    1  UNL1       -0.0000
     52 C          65.8636   96.8560    8.8530 C.ar    1  UNL1       -0.0003
     53 C          65.3386   96.0774   10.0227 C.ar    1  UNL1       -0.0042
@<TRIPOS>BOND
     1    23    24    1
     2    24    25    1
     3    24    18    1
     4    18    19   ar
     5    19    20   ar
     6    20    17    1
     7    17     6    1
     8     6     7    1
     9     6     8   am
    10     8     9    2
    11     8    10   am
    12    10    11    1
    13    11    12    1
    14    12    13    1
    15    12    14    1
    16    14    15    1
    17    15     2    1
    18     2     3    2
    19     2     4   am
    20     4     1    1
    21     1    26    1
    22    26    27    1
    23    28    27    1
    24    28    40    1
    25    40    41    1
    26    41    42   ar
    27    42    43   ar
    28    43    44   ar
    29    44    45   ar
    30    45    46   ar
    31    28    29    1
    32    29    30   am
    33    30    31    2
    34    30    33    1
    35    33    34    1
    36    34    35    1
    37    35    36   ar
    38    36    37   ar
    39    37    38   ar
    40    38    39   ar
    41     1    47    1
    42    47    48    1
    43    48    49   ar
    44    49    50   ar
    45    50    51   ar
    46    51    52   ar
    47    52    53   ar
    48    20    21   ar
    49    21    22   ar
    50    22    18   ar
    51    15    10    1
    52    46    41   ar
    53    39    35   ar
    54    53    48   ar
    55    13    16    1
    56     4     5    1
    57    29    32    1
