@<TRIPOS>MOLECULE
*****
 31 34 0 0 0
SMALL
GASTEIGER

@<TRIPOS>ATOM
      1 C          63.7821   87.6842   13.8108 C.ar    1  UNL1        0.0796
      2 C          64.6498   88.7219   14.4591 C.ar    1  UNL1        0.0154
      3 C          64.7377   90.0993   13.8719 C.ar    1  UNL1        0.0105
      4 C          63.9580   90.4390   12.6363 C.ar    1  UNL1        0.0777
      5 N          63.0904   89.4013   11.9880 N.ar    1  UNL1       -0.2922
      6 C          62.2130   89.4437   10.7721 C.ar    1  UNL1        0.0567
      7 C          62.0028   90.6292    9.8775 C.3     1  UNL1        0.0517
      8 C          61.5828   88.0924   10.6079 C.ar    1  UNL1        0.0730
      9 C          60.6317   87.6895    9.5201 C.3     1  UNL1        0.0534
     10 N          62.0707   87.2149   11.7223 N.ar    1  UNL1       -0.2299
     11 C          63.0024   88.0239   12.5752 C.ar    1  UNL1        0.1603
     12 C          65.6054   91.1371   14.5202 C.3     1  UNL1        0.1392
     13 C          66.9585   91.4453   13.9511 C.2     1  UNL1        0.0771
     14 N          67.8262   92.4830   14.5993 N.am    1  UNL1       -0.1646
     15 C          67.3407   93.2126   15.8168 C.2     1  UNL1        0.3297
     16 O          68.2083   94.2503   16.4650 O.2     1  UNL1       -0.2502
     17 N          65.9875   92.9043   16.3859 N.am    1  UNL1       -0.2374
     18 C          65.1199   91.8665   15.7376 C.2     1  UNL1        0.2385
     19 O          63.7667   91.5583   16.3067 O.2     1  UNL1       -0.2739
     20 H          65.6689   93.3831   17.1850 H       1  UNL1        0.1592
     21 N          63.6942   86.3067   14.3981 N.pl3   1  UNL1       -0.3267
     22 H          63.2571   86.1701   15.2696 H       1  UNL1        0.1472
     23 C          64.2722   85.1373   13.6574 C.3     1  UNL1        0.1137
     24 C          64.4070   83.5463   11.1177 C.3     1  UNL1        0.0307
     25 C          63.5496   83.0737   12.2541 C.ar    1  UNL1       -0.0245
     26 C          62.7595   81.8056   12.1206 C.ar    1  UNL1       -0.0045
     27 C          61.9021   81.3331   13.2570 C.ar    1  UNL1       -0.0007
     28 C          61.8346   82.1286   14.5269 C.ar    1  UNL1       -0.0045
     29 C          62.6247   83.3967   14.6604 C.ar    1  UNL1       -0.0245
     30 C          62.5573   84.1922   15.9303 C.3     1  UNL1        0.0307
     31 C          63.4822   83.8693   13.5240 C.ar    1  UNL1       -0.0105
@<TRIPOS>BOND
     1    24    25    1
     2    25    26   ar
     3    26    27   ar
     4    27    28   ar
     5    28    29   ar
     6    29    30    1
     7    29    31   ar
     8    31    23    1
     9    23    21    1
    10    21     1    1
    11     1     2   ar
    12     2     3   ar
    13     3    12    1
    14    12    13    1
    15    13    14    2
    16    14    15    1
    17    15    16    2
    18    15    17   am
    19    17    18   am
    20    18    19    2
    21     3     4   ar
    22     4     5   ar
    23     5     6   ar
    24     6     7    1
    25     6     8   ar
    26     8     9    1
    27     8    10   ar
    28    10    11   ar
    29    31    25   ar
    30    11     1   ar
    31    18    12    1
    32    11     5   ar
    33    21    22    1
    34    17    20    1
@<TRIPOS>MOLECULE
*****
 31 34 0 0 0
SMALL
GASTEIGER

@<TRIPOS>ATOM
      1 C          62.3605   88.6938   10.7840 C.ar    1  UNL1        0.0796
      2 C          62.7842   87.4767   11.5515 C.ar    1  UNL1        0.0154
      3 C          62.2035   86.1360   11.2119 C.ar    1  UNL1        0.0105
      4 C          61.1991   86.0125   10.1047 C.ar    1  UNL1        0.0777
      5 N          60.7753   87.2296    9.3372 N.ar    1  UNL1       -0.2922
      6 C          59.8117   87.4158    8.2028 C.ar    1  UNL1        0.0567
      7 C          59.0047   86.3358    7.5453 C.3     1  UNL1        0.0517
      8 C          59.7969   88.8715    7.8414 C.ar    1  UNL1        0.0730
      9 C          58.9723   89.5029    6.7590 C.3     1  UNL1        0.0534
     10 N          60.7513   89.5850    8.7524 N.ar    1  UNL1       -0.2299
     11 C          61.3561   88.5702    9.6768 C.ar    1  UNL1        0.1603
     12 C          62.6272   84.9189   11.9794 C.3     1  UNL1        0.1392
     13 C          62.3242   84.8131   13.4446 C.2     1  UNL1        0.0771
     14 N          62.7478   83.5960   14.2122 N.am    1  UNL1       -0.1646
     15 C          63.4746   82.4846   13.5145 C.2     1  UNL1        0.3297
     16 O          63.8983   81.2675   14.2820 O.2     1  UNL1       -0.2502
     17 N          63.7776   82.5904   12.0492 N.am    1  UNL1       -0.2374
     18 C          63.3539   83.8076   11.2817 C.2     1  UNL1        0.2385
     19 O          63.6570   83.9134    9.8164 O.2     1  UNL1       -0.2739
     20 H          64.2546   81.8610   11.5913 H       1  UNL1        0.1592
     21 N          62.9412   90.0345   11.1237 N.pl3   1  UNL1       -0.3267
     22 H          63.2304   90.6420   10.4050 H       1  UNL1        0.1472
     23 C          63.0812   90.4495   12.5583 C.3     1  UNL1        0.1137
     24 C          64.1210   89.7233   15.2770 C.3     1  UNL1        0.0307
     25 C          64.8934   90.6700   14.4069 C.ar    1  UNL1       -0.0245
     26 C          66.1857   91.2536   14.8961 C.ar    1  UNL1       -0.0045
     27 C          66.9581   92.2003   14.0260 C.ar    1  UNL1       -0.0007
     28 C          66.4382   92.5634   12.6666 C.ar    1  UNL1       -0.0045
     29 C          65.1459   91.9798   12.1774 C.ar    1  UNL1       -0.0245
     30 C          64.6260   92.3430   10.8180 C.3     1  UNL1        0.0307
     31 C          64.3735   91.0331   13.0475 C.ar    1  UNL1       -0.0105
@<TRIPOS>BOND
     1    24    25    1
     2    25    26   ar
     3    26    27   ar
     4    27    28   ar
     5    28    29   ar
     6    29    30    1
     7    29    31   ar
     8    31    23    1
     9    23    21    1
    10    21     1    1
    11     1     2   ar
    12     2     3   ar
    13     3    12    1
    14    12    13    1
    15    13    14    2
    16    14    15    1
    17    15    16    2
    18    15    17   am
    19    17    18   am
    20    18    19    2
    21     3     4   ar
    22     4     5   ar
    23     5     6   ar
    24     6     7    1
    25     6     8   ar
    26     8     9    1
    27     8    10   ar
    28    10    11   ar
    29    31    25   ar
    30    11     1   ar
    31    18    12    1
    32    11     5   ar
    33    21    22    1
    34    17    20    1
@<TRIPOS>MOLECULE
*****
 31 34 0 0 0
SMALL
GASTEIGER

@<TRIPOS>ATOM
      1 C          62.3588   88.7015   10.7842 C.ar    1  UNL1        0.0796
      2 C          62.7816   87.4840   11.5517 C.ar    1  UNL1        0.0154
      3 C          62.1980   86.1442   11.2135 C.ar    1  UNL1        0.0105
      4 C          61.1917   86.0219   10.1079 C.ar    1  UNL1        0.0777
      5 N          60.7689   87.2393    9.3405 N.ar    1  UNL1       -0.2922
      6 C          59.8038   87.4266    8.2075 C.ar    1  UNL1        0.0567
      7 C          58.9939   86.3478    7.5518 C.3     1  UNL1        0.0517
      8 C          59.7910   88.8822    7.8454 C.ar    1  UNL1        0.0730
      9 C          58.9658   89.5145    6.7640 C.3     1  UNL1        0.0534
     10 N          60.7480   89.5945    8.7546 N.ar    1  UNL1       -0.2299
     11 C          61.3524   88.5791    9.6786 C.ar    1  UNL1        0.1603
     12 C          62.6208   84.9267   11.9810 C.3     1  UNL1        0.1392
     13 C          62.3179   84.8212   13.4463 C.2     1  UNL1        0.0771
     14 N          62.7406   83.6038   14.2138 N.am    1  UNL1       -0.1646
     15 C          63.4663   82.4917   13.5160 C.2     1  UNL1        0.3297
     16 O          63.8891   81.2743   14.2835 O.2     1  UNL1       -0.2502
     17 N          63.7692   82.5973   12.0507 N.am    1  UNL1       -0.2374
     18 C          63.3464   83.8148   11.2832 C.2     1  UNL1        0.2385
     19 O          63.6493   83.9203    9.8179 O.2     1  UNL1       -0.2739
     20 H          64.2455   81.8674   11.5927 H       1  UNL1        0.1592
     21 N          62.9423   90.0414   11.1223 N.pl3   1  UNL1       -0.3267
     22 H          63.2352   90.6464   10.4030 H       1  UNL1        0.1472
     23 C          63.0795   90.4594   12.5563 C.3     1  UNL1        0.1137
     24 C          64.6366   92.3499   10.8239 C.3     1  UNL1        0.0307
     25 C          65.1525   91.9803   12.1830 C.ar    1  UNL1       -0.0245
     26 C          66.4470   92.5559   12.6759 C.ar    1  UNL1       -0.0045
     27 C          66.9630   92.1863   14.0350 C.ar    1  UNL1       -0.0007
     28 C          66.1844   91.2410   14.9012 C.ar    1  UNL1       -0.0045
     29 C          64.8899   90.6654   14.4083 C.ar    1  UNL1       -0.0245
     30 C          64.1114   89.7201   15.2746 C.3     1  UNL1        0.0307
     31 C          64.3740   91.0350   13.0492 C.ar    1  UNL1       -0.0105
@<TRIPOS>BOND
     1    24    25    1
     2    25    26   ar
     3    26    27   ar
     4    27    28   ar
     5    28    29   ar
     6    29    30    1
     7    29    31   ar
     8    31    23    1
     9    23    21    1
    10    21     1    1
    11     1     2   ar
    12     2     3   ar
    13     3    12    1
    14    12    13    1
    15    13    14    2
    16    14    15    1
    17    15    16    2
    18    15    17   am
    19    17    18   am
    20    18    19    2
    21     3     4   ar
    22     4     5   ar
    23     5     6   ar
    24     6     7    1
    25     6     8   ar
    26     8     9    1
    27     8    10   ar
    28    10    11   ar
    29    31    25   ar
    30    11     1   ar
    31    18    12    1
    32    11     5   ar
    33    21    22    1
    34    17    20    1
@<TRIPOS>MOLECULE
*****
 31 34 0 0 0
SMALL
GASTEIGER

@<TRIPOS>ATOM
      1 C          63.3362   90.5543   11.3663 C.ar    1  UNL1        0.0796
      2 C          63.1058   89.6544   12.5440 C.ar    1  UNL1        0.0154
      3 C          63.8523   89.8882   13.8239 C.ar    1  UNL1        0.0105
      4 C          64.8291   91.0219   13.9261 C.ar    1  UNL1        0.0777
      5 N          65.0595   91.9218   12.7484 N.ar    1  UNL1       -0.2922
      6 C          65.9531   93.1107   12.5533 C.ar    1  UNL1        0.0567
      7 C          66.8784   93.6959   13.5786 C.3     1  UNL1        0.0517
      8 C          65.7589   93.6117   11.1528 C.ar    1  UNL1        0.0730
      9 C          66.4559   94.7859   10.5318 C.3     1  UNL1        0.0534
     10 N          64.7453   92.7325   10.4823 N.ar    1  UNL1       -0.2299
     11 C          64.3131   91.6881   11.4685 C.ar    1  UNL1        0.1603
     12 C          63.6219   88.9883   15.0017 C.3     1  UNL1        0.1392
     13 C          63.7333   87.5009   14.8422 C.2     1  UNL1        0.0771
     14 N          63.5029   86.6010   16.0199 N.am    1  UNL1       -0.1646
     15 C          63.1611   87.1884   17.3572 C.2     1  UNL1        0.3297
     16 O          62.9307   86.2885   18.5348 O.2     1  UNL1       -0.2502
     17 N          63.0497   88.6757   17.5166 N.am    1  UNL1       -0.2374
     18 C          63.2801   89.5757   16.3389 C.2     1  UNL1        0.2385
     19 O          63.1687   91.0630   16.4983 O.2     1  UNL1       -0.2739
     20 H          62.8254   89.0613   18.3943 H       1  UNL1        0.1592
     21 N          62.5897   90.3206   10.0864 N.pl3   1  UNL1       -0.3267
     22 H          63.0132   90.5338    9.2236 H       1  UNL1        0.1472
     23 C          61.1981   89.7620   10.1211 C.3     1  UNL1        0.1137
     24 C          59.5522   89.8747    7.6154 C.3     1  UNL1        0.0307
     25 C          60.0549   88.5561    8.1239 C.ar    1  UNL1       -0.0245
     26 C          59.7346   87.2937    7.3795 C.ar    1  UNL1       -0.0045
     27 C          60.2372   85.9751    7.8881 C.ar    1  UNL1       -0.0007
     28 C          61.0601   85.9188    9.1409 C.ar    1  UNL1       -0.0045
     29 C          61.3804   87.1810    9.8853 C.ar    1  UNL1       -0.0245
     30 C          62.2033   87.1247   11.1381 C.3     1  UNL1        0.0307
     31 C          60.8778   88.4997    9.3767 C.ar    1  UNL1       -0.0105
@<TRIPOS>BOND
     1    24    25    1
     2    25    26   ar
     3    26    27   ar
     4    27    28   ar
     5    28    29   ar
     6    29    30    1
     7    29    31   ar
     8    31    23    1
     9    23    21    1
    10    21     1    1
    11     1     2   ar
    12     2     3   ar
    13     3    12    1
    14    12    13    1
    15    13    14    2
    16    14    15    1
    17    15    16    2
    18    15    17   am
    19    17    18   am
    20    18    19    2
    21     3     4   ar
    22     4     5   ar
    23     5     6   ar
    24     6     7    1
    25     6     8   ar
    26     8     9    1
    27     8    10   ar
    28    10    11   ar
    29    31    25   ar
    30    11     1   ar
    31    18    12    1
    32    11     5   ar
    33    21    22    1
    34    17    20    1
@<TRIPOS>MOLECULE
*****
 31 34 0 0 0
SMALL
GASTEIGER

@<TRIPOS>ATOM
      1 C          62.3510   88.0660   11.8076 C.ar    1  UNL1        0.0796
      2 C          62.7944   86.7781   12.4358 C.ar    1  UNL1        0.0154
      3 C          62.4555   85.4702   11.7843 C.ar    1  UNL1        0.0105
      4 C          61.6731   85.4502   10.5047 C.ar    1  UNL1        0.0777
      5 N          61.2297   86.7381    9.8765 N.ar    1  UNL1       -0.2922
      6 C          60.4519   87.0301    8.6276 C.ar    1  UNL1        0.0567
      7 C          59.9109   86.0124    7.6677 C.3     1  UNL1        0.0517
      8 C          60.3101   88.5186    8.5072 C.ar    1  UNL1        0.0730
      9 C          59.6024   89.2506    7.4057 C.3     1  UNL1        0.0534
     10 N          61.0003   89.1464    9.6817 N.ar    1  UNL1       -0.2299
     11 C          61.5686   88.0460   10.5280 C.ar    1  UNL1        0.1603
     12 C          62.8989   84.1822   12.4125 C.3     1  UNL1        0.1392
     13 C          63.6479   83.1694   11.5981 C.2     1  UNL1        0.0771
     14 N          64.0913   81.8815   12.2262 N.am    1  UNL1       -0.1646
     15 C          63.7858   81.6063   13.6688 C.2     1  UNL1        0.3297
     16 O          64.2292   80.3183   14.2969 O.2     1  UNL1       -0.2502
     17 N          63.0368   82.6191   14.4832 N.am    1  UNL1       -0.2374
     18 C          62.5934   83.9071   13.8550 C.2     1  UNL1        0.2385
     19 O          61.8444   84.9199   14.6694 O.2     1  UNL1       -0.2739
     20 H          62.8362   82.4385   15.4300 H       1  UNL1        0.1592
     21 N          62.6899   89.3740   12.4591 N.pl3   1  UNL1       -0.3267
     22 H          62.2447   89.6365   13.2971 H       1  UNL1        0.1472
     23 C          63.7071   90.2819   11.8339 C.3     1  UNL1        0.1137
     24 C          64.1845   89.5073   14.6925 C.3     1  UNL1        0.0307
     25 C          64.8322   90.7381   14.1308 C.ar    1  UNL1       -0.0245
     26 C          65.7187   91.5816   14.9984 C.ar    1  UNL1       -0.0045
     27 C          66.3664   92.8124   14.4367 C.ar    1  UNL1       -0.0007
     28 C          66.1276   93.1998   13.0073 C.ar    1  UNL1       -0.0045
     29 C          65.2412   92.3563   12.1397 C.ar    1  UNL1       -0.0245
     30 C          65.0025   92.7436   10.7104 C.3     1  UNL1        0.0307
     31 C          64.5935   91.1254   12.7015 C.ar    1  UNL1       -0.0105
@<TRIPOS>BOND
     1    24    25    1
     2    25    26   ar
     3    26    27   ar
     4    27    28   ar
     5    28    29   ar
     6    29    30    1
     7    29    31   ar
     8    31    23    1
     9    23    21    1
    10    21     1    1
    11     1     2   ar
    12     2     3   ar
    13     3    12    1
    14    12    13    1
    15    13    14    2
    16    14    15    1
    17    15    16    2
    18    15    17   am
    19    17    18   am
    20    18    19    2
    21     3     4   ar
    22     4     5   ar
    23     5     6   ar
    24     6     7    1
    25     6     8   ar
    26     8     9    1
    27     8    10   ar
    28    10    11   ar
    29    31    25   ar
    30    11     1   ar
    31    18    12    1
    32    11     5   ar
    33    21    22    1
    34    17    20    1
@<TRIPOS>MOLECULE
*****
 31 34 0 0 0
SMALL
GASTEIGER

@<TRIPOS>ATOM
      1 C          62.3674   88.0378   11.8552 C.ar    1  UNL1        0.0796
      2 C          62.8129   86.7491   12.4802 C.ar    1  UNL1        0.0154
      3 C          62.4801   85.4425   11.8231 C.ar    1  UNL1        0.0105
      4 C          61.7019   85.4245   10.5409 C.ar    1  UNL1        0.0777
      5 N          61.2564   86.7132    9.9159 N.ar    1  UNL1       -0.2922
      6 C          60.4816   87.0073    8.6656 C.ar    1  UNL1        0.0567
      7 C          59.9468   85.9913    7.7003 C.3     1  UNL1        0.0517
      8 C          60.3355   88.4957    8.5500 C.ar    1  UNL1        0.0730
      9 C          59.6290   89.2294    7.4488 C.3     1  UNL1        0.0534
     10 N          61.0200   89.1215    9.7288 N.ar    1  UNL1       -0.2299
     11 C          61.5891   88.0199   10.5730 C.ar    1  UNL1        0.1603
     12 C          62.9256   84.1537   12.4481 C.3     1  UNL1        0.1392
     13 C          63.7015   83.1567   11.6394 C.2     1  UNL1        0.0771
     14 N          64.1470   81.8680   12.2643 N.am    1  UNL1       -0.1646
     15 C          63.8166   81.5761   13.6981 C.2     1  UNL1        0.3297
     16 O          64.2621   80.2873   14.3231 O.2     1  UNL1       -0.2502
     17 N          63.0406   82.5730   14.5069 N.am    1  UNL1       -0.2374
     18 C          62.5952   83.8618   13.8818 C.2     1  UNL1        0.2385
     19 O          61.8192   84.8587   14.6906 O.2     1  UNL1       -0.2739
     20 H          62.8238   82.3815   15.4479 H       1  UNL1        0.1592
     21 N          62.7002   89.3446   12.5124 N.pl3   1  UNL1       -0.3267
     22 H          62.2697   89.5917   13.3626 H       1  UNL1        0.1472
     23 C          63.6888   90.2747   11.8741 C.3     1  UNL1        0.1137
     24 C          64.9952   92.7192   10.7260 C.3     1  UNL1        0.0307
     25 C          65.2399   92.3397   12.1565 C.ar    1  UNL1       -0.0245
     26 C          66.1378   93.1825   13.0129 C.ar    1  UNL1       -0.0045
     27 C          66.3825   92.8031   14.4433 C.ar    1  UNL1       -0.0007
     28 C          65.7293   91.5809   15.0174 C.ar    1  UNL1       -0.0045
     29 C          64.8314   90.7381   14.1610 C.ar    1  UNL1       -0.0245
     30 C          64.1782   89.5158   14.7350 C.3     1  UNL1        0.0307
     31 C          64.5867   91.1175   12.7305 C.ar    1  UNL1       -0.0105
@<TRIPOS>BOND
     1    24    25    1
     2    25    26   ar
     3    26    27   ar
     4    27    28   ar
     5    28    29   ar
     6    29    30    1
     7    29    31   ar
     8    31    23    1
     9    23    21    1
    10    21     1    1
    11     1     2   ar
    12     2     3   ar
    13     3    12    1
    14    12    13    1
    15    13    14    2
    16    14    15    1
    17    15    16    2
    18    15    17   am
    19    17    18   am
    20    18    19    2
    21     3     4   ar
    22     4     5   ar
    23     5     6   ar
    24     6     7    1
    25     6     8   ar
    26     8     9    1
    27     8    10   ar
    28    10    11   ar
    29    31    25   ar
    30    11     1   ar
    31    18    12    1
    32    11     5   ar
    33    21    22    1
    34    17    20    1
@<TRIPOS>MOLECULE
*****
 31 34 0 0 0
SMALL
GASTEIGER

@<TRIPOS>ATOM
      1 C          62.9440   87.6060   12.2598 C.ar    1  UNL1        0.0796
      2 C          63.1460   86.2101   12.7702 C.ar    1  UNL1        0.0154
      3 C          62.4816   85.0558   12.0802 C.ar    1  UNL1        0.0105
      4 C          61.6151   85.2975   10.8799 C.ar    1  UNL1        0.0777
      5 N          61.4130   86.6934   10.3695 N.ar    1  UNL1       -0.2922
      6 C          60.6210   87.2360    9.2170 C.ar    1  UNL1        0.0567
      7 C          59.7984   86.4303    8.2556 C.3     1  UNL1        0.0517
      8 C          60.7960   88.7256    9.1947 C.ar    1  UNL1        0.0730
      9 C          60.1790   89.6711    8.2070 C.3     1  UNL1        0.0534
     10 N          61.6961   89.1037   10.3334 N.ar    1  UNL1       -0.2299
     11 C          62.0775   87.8477   11.0595 C.ar    1  UNL1        0.1603
     12 C          62.6836   83.6598   12.5905 C.3     1  UNL1        0.1392
     13 C          62.2628   83.3029   13.9854 C.2     1  UNL1        0.0771
     14 N          62.4647   81.9070   14.4957 N.am    1  UNL1       -0.1646
     15 C          63.0876   80.8678   13.6112 C.2     1  UNL1        0.3297
     16 O          63.2896   79.4719   14.1216 O.2     1  UNL1       -0.2502
     17 N          63.5084   81.2247   12.2164 N.am    1  UNL1       -0.2374
     18 C          63.3064   82.6207   11.7060 C.2     1  UNL1        0.2385
     19 O          63.7272   82.9775   10.3112 O.2     1  UNL1       -0.2739
     20 H          63.9172   80.5427   11.6359 H       1  UNL1        0.1592
     21 N          63.6085   88.7604   12.9498 N.pl3   1  UNL1       -0.3267
     22 H          63.4483   89.6797   12.6361 H       1  UNL1        0.1472
     23 C          64.5169   88.5139   14.1177 C.3     1  UNL1        0.1137
     24 C          65.1016   85.6089   14.5854 C.3     1  UNL1        0.0307
     25 C          64.2838   86.3788   15.5795 C.ar    1  UNL1       -0.0245
     26 C          63.7583   85.6962   16.8076 C.ar    1  UNL1       -0.0045
     27 C          62.9405   86.4662   17.8017 C.ar    1  UNL1       -0.0007
     28 C          62.6481   87.9187   17.5678 C.ar    1  UNL1       -0.0045
     29 C          63.1736   88.6013   16.3399 C.ar    1  UNL1       -0.0245
     30 C          62.8812   90.0539   16.1060 C.3     1  UNL1        0.0307
     31 C          63.9914   87.8314   15.3457 C.ar    1  UNL1       -0.0105
@<TRIPOS>BOND
     1    24    25    1
     2    25    26   ar
     3    26    27   ar
     4    27    28   ar
     5    28    29   ar
     6    29    30    1
     7    29    31   ar
     8    31    23    1
     9    23    21    1
    10    21     1    1
    11     1     2   ar
    12     2     3   ar
    13     3    12    1
    14    12    13    1
    15    13    14    2
    16    14    15    1
    17    15    16    2
    18    15    17   am
    19    17    18   am
    20    18    19    2
    21     3     4   ar
    22     4     5   ar
    23     5     6   ar
    24     6     7    1
    25     6     8   ar
    26     8     9    1
    27     8    10   ar
    28    10    11   ar
    29    31    25   ar
    30    11     1   ar
    31    18    12    1
    32    11     5   ar
    33    21    22    1
    34    17    20    1
