@<TRIPOS>MOLECULE
*****
 26 29 0 0 0
SMALL
GASTEIGER

@<TRIPOS>ATOM
      1 C          64.5852   90.9948   13.5297 C.ar    1  UNL1        0.0541
      2 C          64.0555   91.6758   12.3027 C.ar    1  UNL1        0.0150
      3 C          63.2338   90.9048   11.3126 C.ar    1  UNL1        0.0033
      4 C          62.9418   89.4527   11.5495 C.ar    1  UNL1        0.0239
      5 C          63.4715   88.7717   12.7765 C.ar    1  UNL1        0.0033
      6 C          64.2932   89.5427   13.7666 C.ar    1  UNL1        0.0150
      7 C          62.1201   88.6817   10.5594 C.ar    1  UNL1        0.1107
      8 N          62.4771   87.3529    9.9621 N.ar    1  UNL1       -0.2383
      9 C          61.3747   86.9540    9.0263 C.ar    1  UNL1        0.0878
     10 C          61.1823   85.7452    8.1594 C.ar    1  UNL1        0.0196
     11 C          59.9515   85.6187    7.3114 C.ar    1  UNL1        0.0016
     12 C          58.9132   86.7010    7.3303 C.ar    1  UNL1        0.0006
     13 C          59.1056   87.9099    8.1971 C.ar    1  UNL1        0.0080
     14 C          60.3364   88.0364    9.0451 C.ar    1  UNL1        0.0485
     15 S          60.7971   89.1042    9.9926 S.2     1  UNL1       -0.0665
     16 C          65.7096   92.7661   16.8984 C.3     1  UNL1        0.0952
     17 C          64.8878   91.9951   15.9083 C.2     1  UNL1        0.2301
     18 O          63.5470   91.4534   16.3067 O.2     1  UNL1       -0.2745
     19 N          65.4069   91.7658   14.5198 N.am    1  UNL1       -0.2543
     20 C          66.7477   92.3075   14.1214 C.3     1  UNL1        0.1263
     21 C          66.9766   92.7861   12.7184 C.ar    1  UNL1        0.0172
     22 C          67.7093   91.9171   11.7396 C.ar    1  UNL1        0.0005
     23 C          67.9382   92.3958   10.3366 C.ar    1  UNL1        0.0204
     24 C          67.4342   93.7434    9.9123 C.ar    1  UNL1        0.0989
     25 N          66.7014   94.6123   10.8911 N.ar    1  UNL1       -0.2426
     26 C          66.4726   94.1337   12.2941 C.ar    1  UNL1        0.0962
@<TRIPOS>BOND
     1    16    17    1
     2    17    18    2
     3    17    19   am
     4    19    20    1
     5    20    21    1
     6    21    22   ar
     7    22    23   ar
     8    23    24   ar
     9    24    25   ar
    10    25    26   ar
    11    19     1    1
    12     1     2   ar
    13     2     3   ar
    14     3     4   ar
    15     4     7    1
    16     7     8   ar
    17     8     9   ar
    18     9    10   ar
    19    10    11   ar
    20    11    12   ar
    21    12    13   ar
    22    13    14   ar
    23    14    15   ar
    24     4     5   ar
    25     5     6   ar
    26    26    21   ar
    27     6     1   ar
    28    15     7   ar
    29    14     9   ar
@<TRIPOS>MOLECULE
*****
 26 29 0 0 0
SMALL
GASTEIGER

@<TRIPOS>ATOM
      1 C          64.5017   89.2898   14.4647 C.ar    1  UNL1        0.0541
      2 C          65.7054   90.1127   14.8166 C.ar    1  UNL1        0.0150
      3 C          66.1302   91.2403   13.9233 C.ar    1  UNL1        0.0033
      4 C          65.3513   91.5451   12.6782 C.ar    1  UNL1        0.0239
      5 C          64.1476   90.7222   12.3263 C.ar    1  UNL1        0.0033
      6 C          63.7227   89.5945   13.2196 C.ar    1  UNL1        0.0150
      7 C          65.7761   92.6727   11.7849 C.ar    1  UNL1        0.1107
      8 N          65.5427   94.1329   12.0366 N.ar    1  UNL1       -0.2383
      9 C          66.1312   94.9008   10.8903 C.ar    1  UNL1        0.0878
     10 C          66.2005   96.3701   10.5968 C.ar    1  UNL1        0.0196
     11 C          66.8670   96.8539    9.3431 C.ar    1  UNL1        0.0016
     12 C          67.4641   95.8682    8.3829 C.ar    1  UNL1        0.0006
     13 C          67.3948   94.3989    8.6764 C.ar    1  UNL1        0.0080
     14 C          66.7284   93.9152    9.9301 C.ar    1  UNL1        0.0485
     15 S          66.5089   92.5382   10.4830 S.2     1  UNL1       -0.0665
     16 C          62.5723   87.2505   17.2698 C.3     1  UNL1        0.0952
     17 C          62.9971   88.3781   16.3765 C.2     1  UNL1        0.2301
     18 O          62.3420   89.7217   16.5018 O.2     1  UNL1       -0.2745
     19 N          64.0768   88.1622   15.3580 N.am    1  UNL1       -0.2543
     20 C          64.7318   86.8186   15.2328 C.3     1  UNL1        0.1263
     21 C          64.0698   85.7326   14.4375 C.ar    1  UNL1        0.0172
     22 C          63.4215   86.0542   13.1236 C.ar    1  UNL1        0.0005
     23 C          62.7595   84.9683   12.3283 C.ar    1  UNL1        0.0204
     24 C          62.7458   83.5608   12.8469 C.ar    1  UNL1        0.0989
     25 N          63.3941   83.2393   14.1608 N.ar    1  UNL1       -0.2426
     26 C          64.0561   84.3252   14.9561 C.ar    1  UNL1        0.0962
@<TRIPOS>BOND
     1    16    17    1
     2    17    18    2
     3    17    19   am
     4    19    20    1
     5    20    21    1
     6    21    22   ar
     7    22    23   ar
     8    23    24   ar
     9    24    25   ar
    10    25    26   ar
    11    19     1    1
    12     1     2   ar
    13     2     3   ar
    14     3     4   ar
    15     4     7    1
    16     7     8   ar
    17     8     9   ar
    18     9    10   ar
    19    10    11   ar
    20    11    12   ar
    21    12    13   ar
    22    13    14   ar
    23    14    15   ar
    24     4     5   ar
    25     5     6   ar
    26    26    21   ar
    27     6     1   ar
    28    15     7   ar
    29    14     9   ar
@<TRIPOS>MOLECULE
*****
 26 29 0 0 0
SMALL
GASTEIGER

@<TRIPOS>ATOM
      1 C          65.0829   92.1957   12.3908 C.ar    1  UNL1        0.0541
      2 C          64.3358   91.1201   13.1220 C.ar    1  UNL1        0.0150
      3 C          63.3961   90.2198   12.3760 C.ar    1  UNL1        0.0033
      4 C          63.2035   90.3952   10.8989 C.ar    1  UNL1        0.0239
      5 C          63.9507   91.4708   10.1677 C.ar    1  UNL1        0.0033
      6 C          64.8903   92.3711   10.9137 C.ar    1  UNL1        0.0150
      7 C          62.2638   89.4949   10.1529 C.ar    1  UNL1        0.1107
      8 N          61.0739   89.9322    9.3511 N.ar    1  UNL1       -0.2383
      9 C          60.4237   88.7069    8.7804 C.ar    1  UNL1        0.0878
     10 C          59.2159   88.5246    7.9099 C.ar    1  UNL1        0.0196
     11 C          58.7961   87.1476    7.4883 C.ar    1  UNL1        0.0016
     12 C          59.5843   85.9529    7.9373 C.ar    1  UNL1        0.0006
     13 C          60.7921   86.1352    8.8079 C.ar    1  UNL1        0.0080
     14 C          61.2118   87.5122    9.2294 C.ar    1  UNL1        0.0485
     15 S          62.3491   87.9992   10.0776 S.2     1  UNL1       -0.0665
     16 C          67.7328   93.4689   15.0567 C.3     1  UNL1        0.0952
     17 C          66.7931   92.5686   14.3108 C.2     1  UNL1        0.2301
     18 O          66.6239   91.1409   14.7388 O.2     1  UNL1       -0.2745
     19 N          66.0226   93.0960   13.1368 N.am    1  UNL1       -0.2543
     20 C          66.1918   94.5236   12.7089 C.3     1  UNL1        0.1263
     21 C          66.4747   94.8473   11.2718 C.ar    1  UNL1        0.0172
     22 C          67.4886   94.0476   10.5084 C.ar    1  UNL1        0.0005
     23 C          67.7715   94.3713    9.0714 C.ar    1  UNL1        0.0204
     24 C          67.0406   95.4947    8.3977 C.ar    1  UNL1        0.0989
     25 N          66.0269   96.2944    9.1610 N.ar    1  UNL1       -0.2426
     26 C          65.7439   95.9707   10.5981 C.ar    1  UNL1        0.0962
@<TRIPOS>BOND
     1    16    17    1
     2    17    18    2
     3    17    19   am
     4    19    20    1
     5    20    21    1
     6    21    22   ar
     7    22    23   ar
     8    23    24   ar
     9    24    25   ar
    10    25    26   ar
    11    19     1    1
    12     1     2   ar
    13     2     3   ar
    14     3     4   ar
    15     4     7    1
    16     7     8   ar
    17     8     9   ar
    18     9    10   ar
    19    10    11   ar
    20    11    12   ar
    21    12    13   ar
    22    13    14   ar
    23    14    15   ar
    24     4     5   ar
    25     5     6   ar
    26    26    21   ar
    27     6     1   ar
    28    15     7   ar
    29    14     9   ar
@<TRIPOS>MOLECULE
*****
 26 29 0 0 0
SMALL
GASTEIGER

@<TRIPOS>ATOM
      1 C          64.2804   88.3873   14.4269 C.ar    1  UNL1        0.0541
      2 C          64.7239   87.1980   15.2261 C.ar    1  UNL1        0.0150
      3 C          64.4714   85.8120   14.7112 C.ar    1  UNL1        0.0033
      4 C          63.7753   85.6152   13.3972 C.ar    1  UNL1        0.0239
      5 C          63.3318   86.8045   12.5980 C.ar    1  UNL1        0.0033
      6 C          63.5843   88.1906   13.1129 C.ar    1  UNL1        0.0150
      7 C          63.5228   84.2292   12.8824 C.ar    1  UNL1        0.1107
      8 N          63.6924   83.7708   11.4642 N.ar    1  UNL1       -0.2383
      9 C          63.3307   82.3165   11.4007 C.ar    1  UNL1        0.0878
     10 C          63.3086   81.3364   10.2654 C.ar    1  UNL1        0.0196
     11 C          62.8933   79.9158   10.5089 C.ar    1  UNL1        0.0016
     12 C          62.5002   79.4753   11.8878 C.ar    1  UNL1        0.0006
     13 C          62.5223   80.4553   13.0231 C.ar    1  UNL1        0.0080
     14 C          62.9376   81.8759   12.7795 C.ar    1  UNL1        0.0485
     15 S          63.0562   83.0580   13.6953 S.2     1  UNL1       -0.0665
     16 C          63.7926   91.8119   16.3722 C.3     1  UNL1        0.0952
     17 C          63.5401   90.4258   15.8574 C.2     1  UNL1        0.2301
     18 O          62.2946   89.6922   16.2583 O.2     1  UNL1       -0.2745
     19 N          64.5329   89.7734   14.9417 N.am    1  UNL1       -0.2543
     20 C          65.7783   90.5070   14.5409 C.3     1  UNL1        0.1263
     21 C          65.7455   91.4664   13.3883 C.ar    1  UNL1        0.0172
     22 C          64.6263   91.4033   12.3916 C.ar    1  UNL1        0.0005
     23 C          64.5936   92.3627   11.2390 C.ar    1  UNL1        0.0204
     24 C          65.6800   93.3853   11.0832 C.ar    1  UNL1        0.0989
     25 N          66.7991   93.4484   12.0799 N.ar    1  UNL1       -0.2426
     26 C          66.8319   92.4889   13.2325 C.ar    1  UNL1        0.0962
@<TRIPOS>BOND
     1    16    17    1
     2    17    18    2
     3    17    19   am
     4    19    20    1
     5    20    21    1
     6    21    22   ar
     7    22    23   ar
     8    23    24   ar
     9    24    25   ar
    10    25    26   ar
    11    19     1    1
    12     1     2   ar
    13     2     3   ar
    14     3     4   ar
    15     4     7    1
    16     7     8   ar
    17     8     9   ar
    18     9    10   ar
    19    10    11   ar
    20    11    12   ar
    21    12    13   ar
    22    13    14   ar
    23    14    15   ar
    24     4     5   ar
    25     5     6   ar
    26    26    21   ar
    27     6     1   ar
    28    15     7   ar
    29    14     9   ar
@<TRIPOS>MOLECULE
*****
 26 29 0 0 0
SMALL
GASTEIGER

@<TRIPOS>ATOM
      1 C          64.2229   88.8587   14.2951 C.ar    1  UNL1        0.0541
      2 C          63.5346   88.5533   12.9979 C.ar    1  UNL1        0.0150
      3 C          63.2850   87.1291   12.5984 C.ar    1  UNL1        0.0033
      4 C          63.7237   86.0105   13.4962 C.ar    1  UNL1        0.0239
      5 C          64.4120   86.3159   14.7934 C.ar    1  UNL1        0.0033
      6 C          64.6616   87.7400   15.1929 C.ar    1  UNL1        0.0150
      7 C          63.4741   84.5863   13.0967 C.ar    1  UNL1        0.1107
      8 N          63.6560   84.0110   11.7234 N.ar    1  UNL1       -0.2383
      9 C          63.2931   82.5566   11.7783 C.ar    1  UNL1        0.0878
     10 C          63.2800   81.4851   10.7287 C.ar    1  UNL1        0.0196
     11 C          62.8608   80.0900   11.0864 C.ar    1  UNL1        0.0016
     12 C          62.4546   79.7665   12.4936 C.ar    1  UNL1        0.0006
     13 C          62.4677   80.8380   13.5432 C.ar    1  UNL1        0.0080
     14 C          62.8869   82.2330   13.1856 C.ar    1  UNL1        0.0485
     15 S          62.9988   83.4875   14.0003 S.2     1  UNL1       -0.0665
     16 C          64.1278   92.2455   16.3617 C.3     1  UNL1        0.0952
     17 C          63.8782   90.8214   15.9622 C.2     1  UNL1        0.2301
     18 O          63.0344   89.9358   16.8304 O.2     1  UNL1       -0.2745
     19 N          64.4725   90.2828   14.6946 N.am    1  UNL1       -0.2543
     20 C          65.3163   91.1684   13.8265 C.3     1  UNL1        0.1263
     21 C          66.4385   91.9605   14.4294 C.ar    1  UNL1        0.0172
     22 C          67.4633   91.2772   15.2855 C.ar    1  UNL1        0.0005
     23 C          68.5854   92.0693   15.8884 C.ar    1  UNL1        0.0204
     24 C          68.6828   93.5446   15.6351 C.ar    1  UNL1        0.0989
     25 N          67.6580   94.2277   14.7789 N.ar    1  UNL1       -0.2426
     26 C          66.5358   93.4357   14.1761 C.ar    1  UNL1        0.0962
@<TRIPOS>BOND
     1    16    17    1
     2    17    18    2
     3    17    19   am
     4    19    20    1
     5    20    21    1
     6    21    22   ar
     7    22    23   ar
     8    23    24   ar
     9    24    25   ar
    10    25    26   ar
    11    19     1    1
    12     1     2   ar
    13     2     3   ar
    14     3     4   ar
    15     4     7    1
    16     7     8   ar
    17     8     9   ar
    18     9    10   ar
    19    10    11   ar
    20    11    12   ar
    21    12    13   ar
    22    13    14   ar
    23    14    15   ar
    24     4     5   ar
    25     5     6   ar
    26    26    21   ar
    27     6     1   ar
    28    15     7   ar
    29    14     9   ar
@<TRIPOS>MOLECULE
*****
 26 29 0 0 0
SMALL
GASTEIGER

@<TRIPOS>ATOM
      1 C          64.1292   89.2142   13.3742 C.ar    1  UNL1        0.0541
      2 C          64.6292   88.3077   14.4597 C.ar    1  UNL1        0.0150
      3 C          64.3091   86.8428   14.4202 C.ar    1  UNL1        0.0033
      4 C          63.4891   86.2843   13.2953 C.ar    1  UNL1        0.0239
      5 C          62.9891   87.1908   12.2098 C.ar    1  UNL1        0.0033
      6 C          63.3092   88.6557   12.2492 C.ar    1  UNL1        0.0150
      7 C          63.1690   84.8194   13.2558 C.ar    1  UNL1        0.1107
      8 N          63.5212   83.8694   12.1497 N.ar    1  UNL1       -0.2383
      9 C          63.0104   82.5101   12.5258 C.ar    1  UNL1        0.0878
     10 C          63.0672   81.1866   11.8223 C.ar    1  UNL1        0.0196
     11 C          62.4561   79.9729   12.4574 C.ar    1  UNL1        0.0016
     12 C          61.7881   80.0828   13.7960 C.ar    1  UNL1        0.0006
     13 C          61.7313   81.4063   14.4995 C.ar    1  UNL1        0.0080
     14 C          62.3425   82.6200   13.8644 C.ar    1  UNL1        0.0485
     15 S          62.4405   84.0472   14.3155 S.2     1  UNL1       -0.0665
     16 C          64.6845   92.9643   12.2002 C.3     1  UNL1        0.0952
     17 C          64.3644   91.4993   12.1607 C.2     1  UNL1        0.2301
     18 O          63.9594   90.8547   10.8682 O.2     1  UNL1       -0.2745
     19 N          64.4493   90.6791   13.4137 N.am    1  UNL1       -0.2543
     20 C          64.8542   91.3237   14.7061 C.3     1  UNL1        0.1263
     21 C          66.2413   91.8710   14.8689 C.ar    1  UNL1        0.0172
     22 C          66.5751   92.7280   16.0540 C.ar    1  UNL1        0.0005
     23 C          67.9622   93.2753   16.2169 C.ar    1  UNL1        0.0204
     24 C          69.0154   92.9656   15.1946 C.ar    1  UNL1        0.0989
     25 N          68.6816   92.1087   14.0096 N.ar    1  UNL1       -0.2426
     26 C          67.2945   91.5615   13.8468 C.ar    1  UNL1        0.0962
@<TRIPOS>BOND
     1    16    17    1
     2    17    18    2
     3    17    19   am
     4    19    20    1
     5    20    21    1
     6    21    22   ar
     7    22    23   ar
     8    23    24   ar
     9    24    25   ar
    10    25    26   ar
    11    19     1    1
    12     1     2   ar
    13     2     3   ar
    14     3     4   ar
    15     4     7    1
    16     7     8   ar
    17     8     9   ar
    18     9    10   ar
    19    10    11   ar
    20    11    12   ar
    21    12    13   ar
    22    13    14   ar
    23    14    15   ar
    24     4     5   ar
    25     5     6   ar
    26    26    21   ar
    27     6     1   ar
    28    15     7   ar
    29    14     9   ar
@<TRIPOS>MOLECULE
*****
 26 29 0 0 0
SMALL
GASTEIGER

@<TRIPOS>ATOM
      1 C          62.1095   88.5312   11.0406 C.ar    1  UNL1        0.0541
      2 C          62.4162   89.9266   10.5838 C.ar    1  UNL1        0.0150
      3 C          63.3985   90.7662   11.3455 C.ar    1  UNL1        0.0033
      4 C          64.0740   90.2104   12.5640 C.ar    1  UNL1        0.0239
      5 C          63.7673   88.8150   13.0208 C.ar    1  UNL1        0.0033
      6 C          62.7850   87.9754   12.2591 C.ar    1  UNL1        0.0150
      7 C          65.0563   91.0501   13.3257 C.ar    1  UNL1        0.1107
      8 N          65.8531   90.6111   14.5184 N.ar    1  UNL1       -0.2383
      9 C          66.7035   91.7658   14.9582 C.ar    1  UNL1        0.0878
     10 C          67.6897   91.9166   16.0783 C.ar    1  UNL1        0.0196
     11 C          68.4048   93.2200   16.2775 C.ar    1  UNL1        0.0016
     12 C          68.1336   94.3726   15.3566 C.ar    1  UNL1        0.0006
     13 C          67.1474   94.2218   14.2366 C.ar    1  UNL1        0.0080
     14 C          66.4323   92.9184   14.0374 C.ar    1  UNL1        0.0485
     15 S          65.4143   92.4760   13.0284 S.2     1  UNL1       -0.0665
     16 C          59.3933   87.4408    8.3604 C.3     1  UNL1        0.0952
     17 C          60.3756   88.2805    9.1221 C.2     1  UNL1        0.2301
     18 O          60.6062   89.7090    8.7270 O.2     1  UNL1       -0.2745
     19 N          61.1272   87.6916   10.2789 N.am    1  UNL1       -0.2543
     20 C          60.8965   86.2631   10.6740 C.3     1  UNL1        0.1263
     21 C          62.0111   85.2653   10.5645 C.ar    1  UNL1        0.0172
     22 C          62.7352   85.0895    9.2626 C.ar    1  UNL1        0.0005
     23 C          63.8498   84.0917    9.1531 C.ar    1  UNL1        0.0204
     24 C          64.2404   83.2696   10.3455 C.ar    1  UNL1        0.0989
     25 N          63.5163   83.4454   11.6473 N.ar    1  UNL1       -0.2426
     26 C          62.4017   84.4432   11.7568 C.ar    1  UNL1        0.0962
@<TRIPOS>BOND
     1    16    17    1
     2    17    18    2
     3    17    19   am
     4    19    20    1
     5    20    21    1
     6    21    22   ar
     7    22    23   ar
     8    23    24   ar
     9    24    25   ar
    10    25    26   ar
    11    19     1    1
    12     1     2   ar
    13     2     3   ar
    14     3     4   ar
    15     4     7    1
    16     7     8   ar
    17     8     9   ar
    18     9    10   ar
    19    10    11   ar
    20    11    12   ar
    21    12    13   ar
    22    13    14   ar
    23    14    15   ar
    24     4     5   ar
    25     5     6   ar
    26    26    21   ar
    27     6     1   ar
    28    15     7   ar
    29    14     9   ar
@<TRIPOS>MOLECULE
*****
 26 29 0 0 0
SMALL
GASTEIGER

@<TRIPOS>ATOM
      1 C          61.8152   88.8900   10.4693 C.ar    1  UNL1        0.0541
      2 C          62.2448   90.2786   10.0992 C.ar    1  UNL1        0.0150
      3 C          63.2412   91.0075   10.9512 C.ar    1  UNL1        0.0033
      4 C          63.8080   90.3477   12.1733 C.ar    1  UNL1        0.0239
      5 C          63.3784   88.9591   12.5433 C.ar    1  UNL1        0.0033
      6 C          62.3819   88.2302   11.6913 C.ar    1  UNL1        0.0150
      7 C          64.8044   91.0766   13.0253 C.ar    1  UNL1        0.1107
      8 N          65.4899   90.5309   14.2428 N.ar    1  UNL1       -0.2383
      9 C          66.3994   91.5962   14.7793 C.ar    1  UNL1        0.0878
     10 C          67.3240   91.6253   15.9601 C.ar    1  UNL1        0.0196
     11 C          68.1252   92.8587   16.2550 C.ar    1  UNL1        0.0016
     12 C          68.0018   94.0628   15.3691 C.ar    1  UNL1        0.0006
     13 C          67.0772   94.0337   14.1884 C.ar    1  UNL1        0.0080
     14 C          66.2760   92.8004   13.8935 C.ar    1  UNL1        0.0485
     15 S          65.2903   92.4792   12.8094 S.2     1  UNL1       -0.0665
     16 C          58.8764   88.2023    7.8924 C.3     1  UNL1        0.0952
     17 C          59.8728   88.9311    8.7444 C.2     1  UNL1        0.2301
     18 O          59.9231   90.4302    8.7235 O.2     1  UNL1       -0.2745
     19 N          60.8188   88.1611    9.6173 N.am    1  UNL1       -0.2543
     20 C          60.7684   86.6621    9.6382 C.3     1  UNL1        0.1263
     21 C          61.2644   85.8785    8.4592 C.ar    1  UNL1        0.0172
     22 C          62.7173   85.5205    8.3541 C.ar    1  UNL1        0.0005
     23 C          63.2133   84.7369    7.1751 C.ar    1  UNL1        0.0204
     24 C          62.2563   84.3113    6.1012 C.ar    1  UNL1        0.0989
     25 N          60.8035   84.6692    6.2064 N.ar    1  UNL1       -0.2426
     26 C          60.3075   85.4528    7.3853 C.ar    1  UNL1        0.0962
@<TRIPOS>BOND
     1    16    17    1
     2    17    18    2
     3    17    19   am
     4    19    20    1
     5    20    21    1
     6    21    22   ar
     7    22    23   ar
     8    23    24   ar
     9    24    25   ar
    10    25    26   ar
    11    19     1    1
    12     1     2   ar
    13     2     3   ar
    14     3     4   ar
    15     4     7    1
    16     7     8   ar
    17     8     9   ar
    18     9    10   ar
    19    10    11   ar
    20    11    12   ar
    21    12    13   ar
    22    13    14   ar
    23    14    15   ar
    24     4     5   ar
    25     5     6   ar
    26    26    21   ar
    27     6     1   ar
    28    15     7   ar
    29    14     9   ar
@<TRIPOS>MOLECULE
*****
 26 29 0 0 0
SMALL
GASTEIGER

@<TRIPOS>ATOM
      1 C          44.5494   75.3376   18.7475 C.ar    1  UNL1        0.0541
      2 C          45.2867   75.5916   17.4662 C.ar    1  UNL1        0.0150
      3 C          45.3688   74.5175   16.4224 C.ar    1  UNL1        0.0033
      4 C          44.7135   73.1893   16.6600 C.ar    1  UNL1        0.0239
      5 C          43.9762   72.9352   17.9413 C.ar    1  UNL1        0.0033
      6 C          43.8942   74.0094   18.9850 C.ar    1  UNL1        0.0150
      7 C          44.7956   72.1151   15.6162 C.ar    1  UNL1        0.1107
      8 N          45.9434   71.1717   15.4102 N.ar    1  UNL1       -0.2383
      9 C          45.6014   70.2693   14.2619 C.ar    1  UNL1        0.0878
     10 C          46.3521   69.1462   13.6099 C.ar    1  UNL1        0.0196
     11 C          45.7436   68.4089   12.4540 C.ar    1  UNL1        0.0016
     12 C          44.3844   68.7946   11.9502 C.ar    1  UNL1        0.0006
     13 C          43.6337   69.9177   12.6022 C.ar    1  UNL1        0.0080
     14 C          44.2423   70.6550   13.7581 C.ar    1  UNL1        0.0485
     15 S          43.7442   71.7958   14.5951 S.2     1  UNL1       -0.0665
     16 C          44.6948   77.1651   22.2673 C.3     1  UNL1        0.0952
     17 C          44.7768   76.0910   21.2235 C.2     1  UNL1        0.2301
     18 O          45.1684   74.6960   21.6120 O.2     1  UNL1       -0.2745
     19 N          44.4674   76.4117   19.7913 N.am    1  UNL1       -0.2543
     20 C          44.0758   77.8066   19.4028 C.3     1  UNL1        0.1263
     21 C          45.1228   78.8743   19.2854 C.ar    1  UNL1        0.0172
     22 C          46.5597   78.4962   19.0789 C.ar    1  UNL1        0.0005
     23 C          47.6067   79.5639   18.9614 C.ar    1  UNL1        0.0204
     24 C          47.2169   81.0097   19.0504 C.ar    1  UNL1        0.0989
     25 N          45.7801   81.3877   19.2568 N.ar    1  UNL1       -0.2426
     26 C          44.7331   80.3200   19.3743 C.ar    1  UNL1        0.0962
@<TRIPOS>BOND
     1    16    17    1
     2    17    18    2
     3    17    19   am
     4    19    20    1
     5    20    21    1
     6    21    22   ar
     7    22    23   ar
     8    23    24   ar
     9    24    25   ar
    10    25    26   ar
    11    19     1    1
    12     1     2   ar
    13     2     3   ar
    14     3     4   ar
    15     4     7    1
    16     7     8   ar
    17     8     9   ar
    18     9    10   ar
    19    10    11   ar
    20    11    12   ar
    21    12    13   ar
    22    13    14   ar
    23    14    15   ar
    24     4     5   ar
    25     5     6   ar
    26    26    21   ar
    27     6     1   ar
    28    15     7   ar
    29    14     9   ar
