@<TRIPOS>MOLECULE
*****
 51 55 0 0 0
SMALL
GASTEIGER

@<TRIPOS>ATOM
      1 C          63.5612   89.8414   12.5399 C.3     1  UNL1        0.0760
      2 C          62.4854   88.5019   10.5909 C.2     1  UNL1        0.2403
      3 O          62.7485   89.6471    9.6586 O.2     1  UNL1       -0.2733
      4 N          62.8917   88.5991   12.0316 N.am    1  UNL1       -0.3043
      5 H          62.7190   87.8474   12.6435 H       1  UNL1        0.1494
      6 C          61.8159   87.2596   10.0826 C.3     1  UNL1        0.1496
      7 N          62.4120   85.9140   10.3730 N.am    1  UNL1       -0.2824
      8 C          62.3406   85.3454   11.7592 C.2     1  UNL1        0.3045
      9 O          61.6730   86.1224   12.8551 O.2     1  UNL1       -0.2526
     10 N          62.9366   84.0000   12.0497 N.am    1  UNL1       -0.2601
     11 H          62.8502   85.4041    9.6538 H       1  UNL1        0.1514
     12 C          63.6042   83.2231   10.9539 C.3     1  UNL1        0.0773
     13 C          64.4845   83.1835    9.7400 C.3     1  UNL1        0.0216
     14 C          63.8800   81.9170   10.2697 C.3     1  UNL1        0.0216
     15 C          62.8652   83.4314   13.4359 C.3     1  UNL1        0.1412
     16 C          62.4239   82.0128   13.6428 C.ar    1  UNL1        0.0862
     17 C          63.2535   80.7869   13.3997 C.ar    1  UNL1        0.0533
     18 S          62.4179   79.5875   13.7358 S.2     1  UNL1       -0.0642
     19 C          61.0718   80.0720   14.1868 C.ar    1  UNL1        0.1342
     20 N          61.0755   81.5709   14.1293 N.ar    1  UNL1       -0.2389
     21 C          59.4914   88.3480    9.6807 C.3     1  UNL1        0.0022
     22 C          60.5504   87.3627    9.2840 C.3     1  UNL1        0.0270
     23 C          60.3440   86.4804    8.0886 C.3     1  UNL1        0.0022
     24 C          64.1449   89.8672   13.9215 C.3     1  UNL1        0.0459
     25 C          63.8905   88.7287   14.8644 C.ar    1  UNL1       -0.0205
     26 C          63.1901   88.9763   16.1675 C.ar    1  UNL1       -0.0042
     27 C          62.9358   87.8379   17.1105 C.ar    1  UNL1       -0.0003
     28 C          63.3818   86.4518   16.7504 C.ar    1  UNL1       -0.0000
     29 C          64.0823   86.2041   15.4472 C.ar    1  UNL1       -0.0003
     30 C          64.3366   87.3426   14.5043 C.ar    1  UNL1       -0.0042
     31 C          63.6470   91.0580   11.6666 C.3     1  UNL1        0.0216
     32 C          64.5132   92.2132   12.0729 C.3     1  UNL1        0.0217
     33 C          65.9284   92.2982   11.5830 C.3     1  UNL1        0.0792
     34 N          66.2411   93.0434   10.3194 N.am    1  UNL1       -0.2720
     35 C          67.6267   92.9998    9.7462 C.2     1  UNL1        0.4019
     36 O          68.6994   92.2109   10.4367 O.2     1  UNL1       -0.2264
     37 H          65.5370   93.5612    9.8661 H       1  UNL1        0.1527
     38 O          67.9394   93.7450    8.4825 O.3     1  UNL1       -0.4291
     39 C          67.7081   95.2251    8.4079 C.3     1  UNL1        0.2447
     40 C          66.6607   95.8650    9.2702 C.ar    1  UNL1        0.0714
     41 C          66.8146   96.2367   10.7152 C.ar    1  UNL1        0.1053
     42 N          65.5245   96.8469   11.1769 N.ar    1  UNL1       -0.2350
     43 C          64.5732   96.8524   10.0172 C.ar    1  UNL1        0.1343
     44 S          65.2754   96.2456    8.8388 S.2     1  UNL1       -0.0652
     45 C          67.0308   91.6380   12.3568 C.3     1  UNL1        0.0460
     46 C          67.3487   92.0967   13.7492 C.ar    1  UNL1       -0.0205
     47 C          68.7618   92.4326   14.1239 C.ar    1  UNL1       -0.0042
     48 C          69.0796   92.8913   15.5162 C.ar    1  UNL1       -0.0003
     49 C          67.9844   93.0139   16.5338 C.ar    1  UNL1       -0.0000
     50 C          66.5714   92.6780   16.1591 C.ar    1  UNL1       -0.0003
     51 C          66.2536   92.2193   14.7668 C.ar    1  UNL1       -0.0042
@<TRIPOS>BOND
     1    21    22    1
     2    22    23    1
     3    22     6    1
     4     6     7    1
     5     7     8   am
     6     8     9    2
     7     8    10   am
     8    10    15    1
     9    15    16    1
    10    16    17   ar
    11    17    18   ar
    12    18    19   ar
    13    19    20   ar
    14    10    12    1
    15    12    13    1
    16    13    14    1
    17     6     2    1
    18     2     3    2
    19     2     4   am
    20     4     1    1
    21     1    31    1
    22    31    32    1
    23    33    32    1
    24    33    45    1
    25    45    46    1
    26    46    47   ar
    27    47    48   ar
    28    48    49   ar
    29    49    50   ar
    30    50    51   ar
    31    33    34    1
    32    34    35   am
    33    35    36    2
    34    35    38    1
    35    38    39    1
    36    39    40    1
    37    40    41   ar
    38    41    42   ar
    39    42    43   ar
    40    43    44   ar
    41     1    24    1
    42    24    25    1
    43    25    26   ar
    44    26    27   ar
    45    27    28   ar
    46    28    29   ar
    47    29    30   ar
    48    20    16   ar
    49    14    12    1
    50    51    46   ar
    51    44    40   ar
    52    30    25   ar
    53     7    11    1
    54     4     5    1
    55    34    37    1
@<TRIPOS>MOLECULE
*****
 51 55 0 0 0
SMALL
GASTEIGER

@<TRIPOS>ATOM
      1 C          63.1741   90.8270   10.9261 C.3     1  UNL1        0.0760
      2 C          61.3847   89.2477    9.8996 C.2     1  UNL1        0.2403
      3 O          60.3156   90.2491   10.2223 O.2     1  UNL1       -0.2733
      4 N          62.8140   89.5366   10.2515 N.am    1  UNL1       -0.3043
      5 H          63.5156   88.8793   10.0396 H       1  UNL1        0.1494
      6 C          61.0246   87.9573    9.2249 C.3     1  UNL1        0.1496
      7 N          61.7820   86.7040    9.5502 N.am    1  UNL1       -0.2824
      8 C          61.6932   86.1094   10.9244 C.2     1  UNL1        0.3045
      9 O          60.8470   86.7681   11.9734 O.2     1  UNL1       -0.2526
     10 N          62.4505   84.8562   11.2498 N.am    1  UNL1       -0.2601
     11 H          62.3373   86.2717    8.8617 H       1  UNL1        0.1514
     12 C          63.2966   84.1976   10.2008 C.3     1  UNL1        0.0773
     13 C          63.6707   84.0147    8.7598 C.3     1  UNL1        0.0216
     14 C          64.3881   83.2398    9.8250 C.3     1  UNL1        0.0216
     15 C          62.3618   84.2616   12.6240 C.3     1  UNL1        0.1412
     16 C          62.3372   82.7718   12.7964 C.ar    1  UNL1        0.0862
     17 C          61.6408   82.0225   13.8937 C.ar    1  UNL1        0.0533
     18 S          61.8778   80.5573   13.6773 S.2     1  UNL1       -0.0642
     19 C          62.7207   80.4008   12.4463 C.ar    1  UNL1        0.1342
     20 N          63.0045   81.7695   11.9019 N.ar    1  UNL1       -0.2389
     21 C          59.6240   89.1207    7.3716 C.3     1  UNL1        0.0022
     22 C          59.9071   87.9201    8.2250 C.3     1  UNL1        0.0270
     23 C          59.0727   86.6823    8.0785 C.3     1  UNL1        0.0022
     24 C          63.6322   91.9984   10.1087 C.3     1  UNL1        0.0459
     25 C          64.9915   92.5887   10.3401 C.ar    1  UNL1       -0.0205
     26 C          65.1222   93.9904   10.8580 C.ar    1  UNL1       -0.0042
     27 C          66.4816   94.5808   11.0894 C.ar    1  UNL1       -0.0003
     28 C          67.7103   93.7695   10.8030 C.ar    1  UNL1       -0.0000
     29 C          67.5796   92.3677   10.2852 C.ar    1  UNL1       -0.0003
     30 C          66.2203   91.7773   10.0537 C.ar    1  UNL1       -0.0042
     31 C          63.0762   90.9461   12.4182 C.3     1  UNL1        0.0216
     32 C          63.6448   89.8703   13.2953 C.3     1  UNL1        0.0217
     33 C          64.1223   90.2040   14.6776 C.3     1  UNL1        0.0792
     34 N          64.1867   89.1344   15.7274 N.am    1  UNL1       -0.2720
     35 C          62.9429   88.7271   16.4603 C.2     1  UNL1        0.4019
     36 O          61.6348   89.3893   16.1436 O.2     1  UNL1       -0.2264
     37 H          65.0452   88.6998   15.9353 H       1  UNL1        0.1527
     38 O          63.0073   87.6576   17.5101 O.3     1  UNL1       -0.4291
     39 C          62.6290   86.2470   17.1678 C.3     1  UNL1        0.2447
     40 C          63.5034   85.4356   16.2584 C.ar    1  UNL1        0.0714
     41 C          63.5252   83.9390   16.1604 C.ar    1  UNL1        0.1053
     42 N          64.5448   83.5568   15.1288 N.ar    1  UNL1       -0.2350
     43 C          65.1532   84.8172   14.5891 C.ar    1  UNL1        0.1343
     44 S          64.5096   85.9784   15.2873 S.2     1  UNL1       -0.0652
     45 C          64.5353   91.6071   15.0102 C.3     1  UNL1        0.0460
     46 C          65.9882   91.9803   15.0143 C.ar    1  UNL1       -0.0205
     47 C          66.5708   92.7137   16.1858 C.ar    1  UNL1       -0.0042
     48 C          68.0237   93.0868   16.1899 C.ar    1  UNL1       -0.0003
     49 C          68.8938   92.7265   15.0223 C.ar    1  UNL1       -0.0000
     50 C          68.3111   91.9931   13.8508 C.ar    1  UNL1       -0.0003
     51 C          66.8583   91.6200   13.8467 C.ar    1  UNL1       -0.0042
@<TRIPOS>BOND
     1    21    22    1
     2    22    23    1
     3    22     6    1
     4     6     7    1
     5     7     8   am
     6     8     9    2
     7     8    10   am
     8    10    15    1
     9    15    16    1
    10    16    17   ar
    11    17    18   ar
    12    18    19   ar
    13    19    20   ar
    14    10    12    1
    15    12    13    1
    16    13    14    1
    17     6     2    1
    18     2     3    2
    19     2     4   am
    20     4     1    1
    21     1    31    1
    22    31    32    1
    23    33    32    1
    24    33    45    1
    25    45    46    1
    26    46    47   ar
    27    47    48   ar
    28    48    49   ar
    29    49    50   ar
    30    50    51   ar
    31    33    34    1
    32    34    35   am
    33    35    36    2
    34    35    38    1
    35    38    39    1
    36    39    40    1
    37    40    41   ar
    38    41    42   ar
    39    42    43   ar
    40    43    44   ar
    41     1    24    1
    42    24    25    1
    43    25    26   ar
    44    26    27   ar
    45    27    28   ar
    46    28    29   ar
    47    29    30   ar
    48    20    16   ar
    49    14    12    1
    50    51    46   ar
    51    44    40   ar
    52    30    25   ar
    53     7    11    1
    54     4     5    1
    55    34    37    1
@<TRIPOS>MOLECULE
*****
 51 55 0 0 0
SMALL
GASTEIGER

@<TRIPOS>ATOM
      1 C          61.8058   89.4798   10.6820 C.3     1  UNL1        0.0760
      2 C          61.7299   86.8986   10.9676 C.2     1  UNL1        0.2403
      3 O          60.5099   87.0299   11.8302 O.2     1  UNL1       -0.2733
      4 N          62.3779   88.1236   10.3935 N.am    1  UNL1       -0.3043
      5 H          63.1787   88.0374    9.8273 H       1  UNL1        0.1494
      6 C          62.3020   85.5423   10.6791 C.3     1  UNL1        0.1496
      7 N          62.4429   84.5373   11.7837 N.am    1  UNL1       -0.2824
      8 C          63.1088   84.9255   13.0705 C.2     1  UNL1        0.3045
      9 O          63.6338   86.3188   13.2527 O.2     1  UNL1       -0.2526
     10 N          63.2497   83.9206   14.1751 N.am    1  UNL1       -0.2601
     11 H          62.0983   83.6228   11.6641 H       1  UNL1        0.1514
     12 C          62.7247   82.5273   13.9928 C.3     1  UNL1        0.0773
     13 C          61.6783   81.4875   14.2646 C.3     1  UNL1        0.0216
     14 C          62.8618   81.1539   13.4055 C.3     1  UNL1        0.0216
     15 C          63.9156   84.3088   15.4619 C.3     1  UNL1        0.1412
     16 C          63.3965   85.4721   16.2538 C.ar    1  UNL1        0.0862
     17 C          63.8533   86.8957   16.1321 C.ar    1  UNL1        0.0533
     18 S          63.0685   87.7195   17.1096 S.2     1  UNL1       -0.0642
     19 C          62.1266   86.8051   17.8354 C.ar    1  UNL1        0.1342
     20 N          62.3293   85.4161   17.3065 N.ar    1  UNL1       -0.2389
     21 C          62.0829   85.8563    8.1094 C.3     1  UNL1        0.0022
     22 C          62.7333   85.1911    9.2860 C.3     1  UNL1        0.0270
     23 C          63.8149   84.1747    9.0696 C.3     1  UNL1        0.0022
     24 C          60.4427   89.8429   10.1717 C.3     1  UNL1        0.0459
     25 C          59.9006   89.1773    8.9416 C.ar    1  UNL1       -0.0205
     26 C          59.9116   89.9036    7.6293 C.ar    1  UNL1       -0.0042
     27 C          59.3695   89.2381    6.3992 C.ar    1  UNL1       -0.0003
     28 C          58.8164   87.8462    6.4814 C.ar    1  UNL1       -0.0000
     29 C          58.8054   87.1198    7.7938 C.ar    1  UNL1       -0.0003
     30 C          59.3475   87.7854    9.0239 C.ar    1  UNL1       -0.0042
     31 C          62.5967   90.4730   11.4807 C.3     1  UNL1        0.0216
     32 C          63.7468   91.1987   10.8479 C.3     1  UNL1        0.0217
     33 C          64.7860   91.8531   11.7093 C.3     1  UNL1        0.0792
     34 N          64.4464   92.2673   13.1104 N.am    1  UNL1       -0.2720
     35 C          64.5230   91.2687   14.2271 C.2     1  UNL1        0.4019
     36 O          64.9392   89.8560   13.9427 O.2     1  UNL1       -0.2264
     37 H          64.1732   93.1945   13.2971 H       1  UNL1        0.1527
     38 O          64.1833   91.6829   15.6282 O.3     1  UNL1       -0.4291
     39 C          65.2011   92.3981   16.4664 C.3     1  UNL1        0.2447
     40 C          66.5629   92.6875   15.9081 C.ar    1  UNL1        0.0714
     41 C          66.8681   93.5974   14.7554 C.ar    1  UNL1        0.1053
     42 N          68.3525   93.5901   14.5394 N.ar    1  UNL1       -0.2350
     43 C          68.9647   92.6757   15.5587 C.ar    1  UNL1        0.1343
     44 S          67.8586   92.1179   16.4046 S.2     1  UNL1       -0.0652
     45 C          66.1647   92.0933   11.1696 C.3     1  UNL1        0.0460
     46 C          66.4891   93.3914   10.4914 C.ar    1  UNL1       -0.0205
     47 C          65.7440   94.6388   10.8639 C.ar    1  UNL1       -0.0042
     48 C          66.0684   95.9369   10.1858 C.ar    1  UNL1       -0.0003
     49 C          67.1378   95.9874    9.1352 C.ar    1  UNL1       -0.0000
     50 C          67.8829   94.7400    8.7627 C.ar    1  UNL1       -0.0003
     51 C          67.5585   93.4420    9.4408 C.ar    1  UNL1       -0.0042
@<TRIPOS>BOND
     1    21    22    1
     2    22    23    1
     3    22     6    1
     4     6     7    1
     5     7     8   am
     6     8     9    2
     7     8    10   am
     8    10    15    1
     9    15    16    1
    10    16    17   ar
    11    17    18   ar
    12    18    19   ar
    13    19    20   ar
    14    10    12    1
    15    12    13    1
    16    13    14    1
    17     6     2    1
    18     2     3    2
    19     2     4   am
    20     4     1    1
    21     1    31    1
    22    31    32    1
    23    33    32    1
    24    33    45    1
    25    45    46    1
    26    46    47   ar
    27    47    48   ar
    28    48    49   ar
    29    49    50   ar
    30    50    51   ar
    31    33    34    1
    32    34    35   am
    33    35    36    2
    34    35    38    1
    35    38    39    1
    36    39    40    1
    37    40    41   ar
    38    41    42   ar
    39    42    43   ar
    40    43    44   ar
    41     1    24    1
    42    24    25    1
    43    25    26   ar
    44    26    27   ar
    45    27    28   ar
    46    28    29   ar
    47    29    30   ar
    48    20    16   ar
    49    14    12    1
    50    51    46   ar
    51    44    40   ar
    52    30    25   ar
    53     7    11    1
    54     4     5    1
    55    34    37    1
@<TRIPOS>MOLECULE
*****
 51 55 0 0 0
SMALL
GASTEIGER

@<TRIPOS>ATOM
      1 C          63.4239   89.3917   12.6918 C.3     1  UNL1        0.0760
      2 C          62.4248   88.1896   10.6165 C.2     1  UNL1        0.2403
      3 O          62.5036   89.4690    9.8375 O.2     1  UNL1       -0.2733
      4 N          62.8849   88.1510   12.0437 N.am    1  UNL1       -0.3043
      5 H          62.8332   87.3113   12.5551 H       1  UNL1        0.1494
      6 C          61.8858   86.9488    9.9684 C.3     1  UNL1        0.1496
      7 N          62.4504   85.6073   10.3314 N.am    1  UNL1       -0.2824
      8 C          62.3242   85.0955   11.7357 C.2     1  UNL1        0.3045
      9 O          61.6334   85.9253   12.7771 O.2     1  UNL1       -0.2526
     10 N          62.8887   83.7541   12.0987 N.am    1  UNL1       -0.2601
     11 H          62.9038   85.0628    9.6479 H       1  UNL1        0.1514
     12 C          63.5795   82.9244   11.0574 C.3     1  UNL1        0.0773
     13 C          63.6862   81.6514   10.2713 C.3     1  UNL1        0.0216
     14 C          64.6692   82.7605   10.0397 C.3     1  UNL1        0.0216
     15 C          62.7625   83.2423   13.5031 C.3     1  UNL1        0.1412
     16 C          62.3455   81.8227   13.7493 C.ar    1  UNL1        0.0862
     17 C          60.9391   81.3375   13.9412 C.ar    1  UNL1        0.0533
     18 S          60.9859   79.8540   14.1574 S.2     1  UNL1       -0.0642
     19 C          62.4213   79.4221   14.0992 C.ar    1  UNL1        0.1342
     20 N          63.2615   80.6389   13.8470 N.ar    1  UNL1       -0.2389
     21 C          59.7760   88.1577    9.0534 C.3     1  UNL1        0.0022
     22 C          60.7823   87.0495    8.9575 C.3     1  UNL1        0.0270
     23 C          60.6851   86.0420    7.8505 C.3     1  UNL1        0.0022
     24 C          64.2829   89.2854   13.9169 C.3     1  UNL1        0.0459
     25 C          63.9358   88.2997   14.9930 C.ar    1  UNL1       -0.0205
     26 C          63.2471   88.7643   16.2419 C.ar    1  UNL1       -0.0042
     27 C          62.9000   87.7786   17.3180 C.ar    1  UNL1       -0.0003
     28 C          63.2416   86.3283   17.1452 C.ar    1  UNL1       -0.0000
     29 C          63.9303   85.8636   15.8962 C.ar    1  UNL1       -0.0003
     30 C          64.2774   86.8493   14.8202 C.ar    1  UNL1       -0.0042
     31 C          63.1039   90.7388   12.1149 C.3     1  UNL1        0.0216
     32 C          63.8073   91.9605   12.6273 C.3     1  UNL1        0.0217
     33 C          65.1738   92.3090   12.1158 C.3     1  UNL1        0.0792
     34 N          65.3388   93.4026   11.1025 N.am    1  UNL1       -0.2720
     35 C          65.8727   94.7400   11.5225 C.2     1  UNL1        0.4019
     36 O          66.2414   94.9839   12.9559 O.2     1  UNL1       -0.2264
     37 H          65.0968   93.2426   10.1617 H       1  UNL1        0.1527
     38 O          66.0377   95.8336   10.5092 O.3     1  UNL1       -0.4291
     39 C          67.2004   95.8090    9.5619 C.3     1  UNL1        0.2447
     40 C          67.8443   94.5039    9.1984 C.ar    1  UNL1        0.0714
     41 C          67.9735   93.9397    7.8146 C.ar    1  UNL1        0.1053
     42 N          68.6810   92.6209    7.9158 N.ar    1  UNL1       -0.2350
     43 C          68.9891   92.3700    9.3622 C.ar    1  UNL1        0.1343
     44 S          68.4719   93.5338   10.1549 S.2     1  UNL1       -0.0652
     45 C          66.3750   91.5641   12.6178 C.3     1  UNL1        0.0460
     46 C          67.0404   91.9868   13.8940 C.ar    1  UNL1       -0.0205
     47 C          66.2153   92.2495   15.1187 C.ar    1  UNL1       -0.0042
     48 C          66.8808   92.6722   16.3948 C.ar    1  UNL1       -0.0003
     49 C          68.3713   92.8322   16.4462 C.ar    1  UNL1       -0.0000
     50 C          69.1965   92.5695   15.2214 C.ar    1  UNL1       -0.0003
     51 C          68.5310   92.1468   13.9453 C.ar    1  UNL1       -0.0042
@<TRIPOS>BOND
     1    21    22    1
     2    22    23    1
     3    22     6    1
     4     6     7    1
     5     7     8   am
     6     8     9    2
     7     8    10   am
     8    10    15    1
     9    15    16    1
    10    16    17   ar
    11    17    18   ar
    12    18    19   ar
    13    19    20   ar
    14    10    12    1
    15    12    13    1
    16    13    14    1
    17     6     2    1
    18     2     3    2
    19     2     4   am
    20     4     1    1
    21     1    31    1
    22    31    32    1
    23    33    32    1
    24    33    45    1
    25    45    46    1
    26    46    47   ar
    27    47    48   ar
    28    48    49   ar
    29    49    50   ar
    30    50    51   ar
    31    33    34    1
    32    34    35   am
    33    35    36    2
    34    35    38    1
    35    38    39    1
    36    39    40    1
    37    40    41   ar
    38    41    42   ar
    39    42    43   ar
    40    43    44   ar
    41     1    24    1
    42    24    25    1
    43    25    26   ar
    44    26    27   ar
    45    27    28   ar
    46    28    29   ar
    47    29    30   ar
    48    20    16   ar
    49    14    12    1
    50    51    46   ar
    51    44    40   ar
    52    30    25   ar
    53     7    11    1
    54     4     5    1
    55    34    37    1
@<TRIPOS>MOLECULE
*****
 51 55 0 0 0
SMALL
GASTEIGER

@<TRIPOS>ATOM
      1 C          63.0325   85.5448   12.1793 C.3     1  UNL1        0.0760
      2 C          62.7153   88.0074   11.4144 C.2     1  UNL1        0.2403
      3 O          63.0163   87.6070   10.0005 O.2     1  UNL1       -0.2733
      4 N          62.7234   86.9763   12.5038 N.am    1  UNL1       -0.3043
      5 H          62.5258   87.2391   13.4318 H       1  UNL1        0.1494
      6 C          62.4062   89.4389   11.7388 C.3     1  UNL1        0.1496
      7 N          63.4683   90.3211   12.3253 N.am    1  UNL1       -0.2824
      8 C          63.9913   91.4880   11.5411 C.2     1  UNL1        0.3045
      9 O          63.4522   91.7725   10.1704 O.2     1  UNL1       -0.2526
     10 N          65.0532   92.3702   12.1274 N.am    1  UNL1       -0.2601
     11 H          63.8220   90.1344   13.2248 H       1  UNL1        0.1514
     12 C          65.5922   92.0856   13.4980 C.3     1  UNL1        0.0773
     13 C          66.5462   91.3502   14.3918 C.3     1  UNL1        0.0216
     14 C          65.5716   92.3282   14.9781 C.3     1  UNL1        0.0216
     15 C          65.5762   93.5371   11.3432 C.3     1  UNL1        0.1412
     16 C          66.7474   93.3580   10.4233 C.ar    1  UNL1        0.0862
     17 C          67.0639   94.2020    9.2243 C.ar    1  UNL1        0.0533
     18 S          68.3198   93.6692    8.6008 S.2     1  UNL1       -0.0642
     19 C          68.7796   92.4959    9.4145 C.ar    1  UNL1        0.1342
     20 N          67.8077   92.3036   10.5408 N.ar    1  UNL1       -0.2389
     21 C          60.0270   90.0485   12.5859 C.3     1  UNL1        0.0022
     22 C          61.0352   89.9881   11.4769 C.3     1  UNL1        0.0270
     23 C          60.6725   90.4770   10.1061 C.3     1  UNL1        0.0022
     24 C          62.0718   84.7379   11.3570 C.3     1  UNL1        0.0459
     25 C          61.9580   84.9829    9.8815 C.ar    1  UNL1       -0.0205
     26 C          63.0128   84.4618    8.9511 C.ar    1  UNL1       -0.0042
     27 C          62.8990   84.7068    7.4756 C.ar    1  UNL1       -0.0003
     28 C          61.7304   85.4730    6.9306 C.ar    1  UNL1       -0.0000
     29 C          60.6754   85.9942    7.8610 C.ar    1  UNL1       -0.0003
     30 C          60.7893   85.7492    9.3365 C.ar    1  UNL1       -0.0042
     31 C          64.3021   84.9202   12.6772 C.3     1  UNL1        0.0216
     32 C          64.3470   83.4518   12.9800 C.3     1  UNL1        0.0217
     33 C          63.5082   82.8887   14.0889 C.3     1  UNL1        0.0792
     34 N          63.6214   83.4513   15.4748 N.am    1  UNL1       -0.2720
     35 C          62.5862   84.4115   15.9813 C.2     1  UNL1        0.4019
     36 O          61.4379   84.8091   15.1019 O.2     1  UNL1       -0.2264
     37 H          64.3750   83.1904   16.0519 H       1  UNL1        0.1527
     38 O          62.6994   84.9741   17.3672 O.3     1  UNL1       -0.4291
     39 C          62.5151   86.4449   17.5969 C.3     1  UNL1        0.2447
     40 C          63.1155   87.4341   16.6425 C.ar    1  UNL1        0.0714
     41 C          64.0333   87.1122   15.5006 C.ar    1  UNL1        0.1053
     42 N          64.3886   88.3981   14.8147 N.ar    1  UNL1       -0.2350
     43 C          63.6902   89.5147   15.5327 C.ar    1  UNL1        0.1343
     44 S          62.9034   88.9189   16.6623 S.2     1  UNL1       -0.0652
     45 C          62.5563   81.7631   13.8118 C.3     1  UNL1        0.0460
     46 C          62.6844   80.9665   12.5472 C.ar    1  UNL1       -0.0205
     47 C          63.0107   81.6566   11.2560 C.ar    1  UNL1       -0.0042
     48 C          63.1388   80.8601    9.9915 C.ar    1  UNL1       -0.0003
     49 C          62.9406   79.3735   10.0181 C.ar    1  UNL1       -0.0000
     50 C          62.6143   78.6834   11.3094 C.ar    1  UNL1       -0.0003
     51 C          62.4862   79.4799   12.5739 C.ar    1  UNL1       -0.0042
@<TRIPOS>BOND
     1    21    22    1
     2    22    23    1
     3    22     6    1
     4     6     7    1
     5     7     8   am
     6     8     9    2
     7     8    10   am
     8    10    15    1
     9    15    16    1
    10    16    17   ar
    11    17    18   ar
    12    18    19   ar
    13    19    20   ar
    14    10    12    1
    15    12    13    1
    16    13    14    1
    17     6     2    1
    18     2     3    2
    19     2     4   am
    20     4     1    1
    21     1    31    1
    22    31    32    1
    23    33    32    1
    24    33    45    1
    25    45    46    1
    26    46    47   ar
    27    47    48   ar
    28    48    49   ar
    29    49    50   ar
    30    50    51   ar
    31    33    34    1
    32    34    35   am
    33    35    36    2
    34    35    38    1
    35    38    39    1
    36    39    40    1
    37    40    41   ar
    38    41    42   ar
    39    42    43   ar
    40    43    44   ar
    41     1    24    1
    42    24    25    1
    43    25    26   ar
    44    26    27   ar
    45    27    28   ar
    46    28    29   ar
    47    29    30   ar
    48    20    16   ar
    49    14    12    1
    50    51    46   ar
    51    44    40   ar
    52    30    25   ar
    53     7    11    1
    54     4     5    1
    55    34    37    1
@<TRIPOS>MOLECULE
*****
 51 55 0 0 0
SMALL
GASTEIGER

@<TRIPOS>ATOM
      1 C          62.6515   85.7332   11.1436 C.3     1  UNL1        0.0760
      2 C          62.4232   88.3207   11.0920 C.2     1  UNL1        0.2403
      3 O          62.8184   88.3268    9.6451 O.2     1  UNL1       -0.2733
      4 N          62.3398   87.0239   11.8413 N.am    1  UNL1       -0.3043
      5 H          62.0804   87.0200   12.7910 H       1  UNL1        0.1494
      6 C          62.1115   89.6115   11.7898 C.3     1  UNL1        0.1496
      7 N          63.2175   90.4196   12.4013 N.am    1  UNL1       -0.2824
      8 C          63.8313   91.5526   11.6335 C.2     1  UNL1        0.3045
      9 O          63.3392   91.8775   10.2542 O.2     1  UNL1       -0.2526
     10 N          64.9373   92.3607   12.2449 N.am    1  UNL1       -0.2601
     11 H          63.5405   90.2064   13.3065 H       1  UNL1        0.1514
     12 C          65.4293   92.0358   13.6241 C.3     1  UNL1        0.0773
     13 C          66.3458   91.2666   14.5287 C.3     1  UNL1        0.0216
     14 C          65.3651   92.2423   15.1084 C.3     1  UNL1        0.0216
     15 C          65.5511   93.4937   11.4771 C.3     1  UNL1        0.1412
     16 C          66.7289   93.2426   10.5828 C.ar    1  UNL1        0.0862
     17 C          67.0748   94.0131    9.3431 C.ar    1  UNL1        0.0533
     18 S          68.3273   93.4235    8.7653 S.2     1  UNL1       -0.0642
     19 C          68.7554   92.2887    9.6479 C.ar    1  UNL1        0.1342
     20 N          67.7675   92.1768   10.7712 N.ar    1  UNL1       -0.2389
     21 C          59.8405   89.7087   13.0479 C.3     1  UNL1        0.0022
     22 C          60.6939   90.0941   11.8761 C.3     1  UNL1        0.0270
     23 C          60.1298   90.9621   10.7906 C.3     1  UNL1        0.0022
     24 C          63.2028   85.7488    9.7486 C.3     1  UNL1        0.0459
     25 C          62.2958   85.4963    8.5809 C.ar    1  UNL1       -0.0205
     26 C          62.7971   84.7278    7.3943 C.ar    1  UNL1       -0.0042
     27 C          61.8901   84.4753    6.2266 C.ar    1  UNL1       -0.0003
     28 C          60.4818   84.9913    6.2454 C.ar    1  UNL1       -0.0000
     29 C          59.9804   85.7599    7.4320 C.ar    1  UNL1       -0.0003
     30 C          60.8874   86.0124    8.5997 C.ar    1  UNL1       -0.0042
     31 C          62.4119   84.4269   11.8407 C.3     1  UNL1        0.0216
     32 C          62.4681   84.3544   13.3379 C.3     1  UNL1        0.0217
     33 C          63.7106   83.8617   14.0188 C.3     1  UNL1        0.0792
     34 N          63.9935   82.3903   14.0899 N.am    1  UNL1       -0.2720
     35 C          62.8705   81.4204   14.3094 C.2     1  UNL1        0.4019
     36 O          61.4646   81.9218   14.4577 O.2     1  UNL1       -0.2264
     37 H          64.9163   82.0612   13.9926 H       1  UNL1        0.1527
     38 O          63.1534   79.9490   14.3806 O.3     1  UNL1       -0.4291
     39 C          62.6126   79.0294   13.3262 C.3     1  UNL1        0.2447
     40 C          62.7437   79.3913   11.8764 C.ar    1  UNL1        0.0714
     41 C          62.6652   78.4396   10.7196 C.ar    1  UNL1        0.1053
     42 N          62.8493   79.2285    9.4571 N.ar    1  UNL1       -0.2350
     43 C          63.0415   80.6677    9.8336 C.ar    1  UNL1        0.1343
     44 S          62.9762   80.7682   11.3289 S.2     1  UNL1       -0.0652
     45 C          64.6700   84.8402   14.6285 C.3     1  UNL1        0.0460
     46 C          64.1520   86.0614   15.3290 C.ar    1  UNL1       -0.0205
     47 C          63.3884   85.9224   16.6125 C.ar    1  UNL1       -0.0042
     48 C          62.8704   87.1435   17.3129 C.ar    1  UNL1       -0.0003
     49 C          63.1160   88.5035   16.7298 C.ar    1  UNL1       -0.0000
     50 C          63.8796   88.6424   15.4463 C.ar    1  UNL1       -0.0003
     51 C          64.3976   87.4214   14.7459 C.ar    1  UNL1       -0.0042
@<TRIPOS>BOND
     1    21    22    1
     2    22    23    1
     3    22     6    1
     4     6     7    1
     5     7     8   am
     6     8     9    2
     7     8    10   am
     8    10    15    1
     9    15    16    1
    10    16    17   ar
    11    17    18   ar
    12    18    19   ar
    13    19    20   ar
    14    10    12    1
    15    12    13    1
    16    13    14    1
    17     6     2    1
    18     2     3    2
    19     2     4   am
    20     4     1    1
    21     1    31    1
    22    31    32    1
    23    33    32    1
    24    33    45    1
    25    45    46    1
    26    46    47   ar
    27    47    48   ar
    28    48    49   ar
    29    49    50   ar
    30    50    51   ar
    31    33    34    1
    32    34    35   am
    33    35    36    2
    34    35    38    1
    35    38    39    1
    36    39    40    1
    37    40    41   ar
    38    41    42   ar
    39    42    43   ar
    40    43    44   ar
    41     1    24    1
    42    24    25    1
    43    25    26   ar
    44    26    27   ar
    45    27    28   ar
    46    28    29   ar
    47    29    30   ar
    48    20    16   ar
    49    14    12    1
    50    51    46   ar
    51    44    40   ar
    52    30    25   ar
    53     7    11    1
    54     4     5    1
    55    34    37    1
@<TRIPOS>MOLECULE
*****
 51 55 0 0 0
SMALL
GASTEIGER

@<TRIPOS>ATOM
      1 C          62.7795   85.9462   10.4066 C.3     1  UNL1        0.0760
      2 C          61.2921   88.0095   10.9360 C.2     1  UNL1        0.2403
      3 O          60.1062   87.3063   10.3452 O.2     1  UNL1       -0.2733
      4 N          62.6288   87.3295   10.9667 N.am    1  UNL1       -0.3043
      5 H          63.4071   87.7911   11.3545 H       1  UNL1        0.1494
      6 C          61.1413   89.3928   11.4961 C.3     1  UNL1        0.1496
      7 N          62.3518   90.2545   11.7024 N.am    1  UNL1       -0.2824
      8 C          62.8969   90.4636   13.0841 C.2     1  UNL1        0.3045
      9 O          62.2316   89.8110   14.2595 O.2     1  UNL1       -0.2526
     10 N          64.1073   91.3252   13.2904 N.am    1  UNL1       -0.2601
     11 H          62.7884   90.6828   10.9309 H       1  UNL1        0.1514
     12 C          64.7725   91.9777   12.1150 C.3     1  UNL1        0.0773
     13 C          65.9908   92.5821   11.4823 C.3     1  UNL1        0.0216
     14 C          64.7063   92.5035   10.7117 C.3     1  UNL1        0.0216
     15 C          64.6524   91.5342   14.6721 C.3     1  UNL1        0.1412
     16 C          66.0139   92.1356   14.8581 C.ar    1  UNL1        0.0862
     17 C          67.3079   91.3809   14.9373 C.ar    1  UNL1        0.0533
     18 S          68.4142   92.3761   15.1258 S.2     1  UNL1       -0.0642
     19 C          67.8041   93.7460   15.1631 C.ar    1  UNL1        0.1342
     20 N          66.3206   93.5973   14.9976 N.ar    1  UNL1       -0.2389
     21 C          58.9049   89.1461   12.7952 C.3     1  UNL1        0.0022
     22 C          59.7802   89.9145   11.8499 C.3     1  UNL1        0.0270
     23 C          59.2945   91.2045   11.2586 C.3     1  UNL1        0.0022
     24 C          63.3242   85.7527    9.0224 C.3     1  UNL1        0.0459
     25 C          62.4122   85.3270    7.9103 C.ar    1  UNL1       -0.0205
     26 C          60.9626   85.7114    7.9403 C.ar    1  UNL1       -0.0042
     27 C          60.0506   85.2856    6.8281 C.ar    1  UNL1       -0.0003
     28 C          60.5881   84.4754    5.6860 C.ar    1  UNL1       -0.0000
     29 C          62.0377   84.0910    5.6559 C.ar    1  UNL1       -0.0003
     30 C          62.9498   84.5167    6.7680 C.ar    1  UNL1       -0.0042
     31 C          62.3856   84.7563   11.2306 C.3     1  UNL1        0.0216
     32 C          62.3909   84.8461   12.7279 C.3     1  UNL1        0.0217
     33 C          63.5751   84.3519   13.5047 C.3     1  UNL1        0.0792
     34 N          63.8768   82.8835   13.5589 N.am    1  UNL1       -0.2720
     35 C          62.9385   81.9507   14.2657 C.2     1  UNL1        0.4019
     36 O          61.6986   82.4862   14.9182 O.2     1  UNL1       -0.2264
     37 H          64.6906   82.5320   13.1306 H       1  UNL1        0.1527
     38 O          63.2401   80.4823   14.3199 O.3     1  UNL1       -0.4291
     39 C          62.5364   79.5373   13.3916 C.3     1  UNL1        0.2447
     40 C          62.7103   79.6746   11.9081 C.ar    1  UNL1        0.0714
     41 C          63.0164   80.9440   11.1699 C.ar    1  UNL1        0.1053
     42 N          63.1040   80.6205    9.7078 N.ar    1  UNL1       -0.2350
     43 C          62.8520   79.1511    9.5423 C.ar    1  UNL1        0.1343
     44 S          62.6087   78.5665   10.9022 S.2     1  UNL1       -0.0652
     45 C          64.4577   85.3260   14.2273 C.3     1  UNL1        0.0460
     46 C          63.9101   86.1299   15.3693 C.ar    1  UNL1       -0.0205
     47 C          64.0788   87.6203   15.3862 C.ar    1  UNL1       -0.0042
     48 C          63.5313   88.4241   16.5281 C.ar    1  UNL1       -0.0003
     49 C          62.8150   87.7376   17.6531 C.ar    1  UNL1       -0.0000
     50 C          62.6462   86.2472   17.6361 C.ar    1  UNL1       -0.0003
     51 C          63.1938   85.4434   16.4942 C.ar    1  UNL1       -0.0042
@<TRIPOS>BOND
     1    21    22    1
     2    22    23    1
     3    22     6    1
     4     6     7    1
     5     7     8   am
     6     8     9    2
     7     8    10   am
     8    10    15    1
     9    15    16    1
    10    16    17   ar
    11    17    18   ar
    12    18    19   ar
    13    19    20   ar
    14    10    12    1
    15    12    13    1
    16    13    14    1
    17     6     2    1
    18     2     3    2
    19     2     4   am
    20     4     1    1
    21     1    31    1
    22    31    32    1
    23    33    32    1
    24    33    45    1
    25    45    46    1
    26    46    47   ar
    27    47    48   ar
    28    48    49   ar
    29    49    50   ar
    30    50    51   ar
    31    33    34    1
    32    34    35   am
    33    35    36    2
    34    35    38    1
    35    38    39    1
    36    39    40    1
    37    40    41   ar
    38    41    42   ar
    39    42    43   ar
    40    43    44   ar
    41     1    24    1
    42    24    25    1
    43    25    26   ar
    44    26    27   ar
    45    27    28   ar
    46    28    29   ar
    47    29    30   ar
    48    20    16   ar
    49    14    12    1
    50    51    46   ar
    51    44    40   ar
    52    30    25   ar
    53     7    11    1
    54     4     5    1
    55    34    37    1
@<TRIPOS>MOLECULE
*****
 51 55 0 0 0
SMALL
GASTEIGER

@<TRIPOS>ATOM
      1 C          62.3082   89.5537   10.5921 C.3     1  UNL1        0.0760
      2 C          61.9985   86.9966   10.9321 C.2     1  UNL1        0.2403
      3 O          60.8074   87.2571   11.8059 O.2     1  UNL1       -0.2733
      4 N          62.7489   88.1450   10.3252 N.am    1  UNL1       -0.3043
      5 H          63.5307   87.9740    9.7518 H       1  UNL1        0.1494
      6 C          62.4393   85.5879   10.6653 C.3     1  UNL1        0.1496
      7 N          62.5467   84.6087   11.7965 N.am    1  UNL1       -0.2824
      8 C          63.2155   85.0125   13.0770 C.2     1  UNL1        0.3045
      9 O          63.7768   86.3955   13.2263 O.2     1  UNL1       -0.2526
     10 N          63.3230   84.0333   14.2082 N.am    1  UNL1       -0.2601
     11 H          62.1783   83.7009   11.6985 H       1  UNL1        0.1514
     12 C          62.7617   82.6503   14.0589 C.3     1  UNL1        0.0773
     13 C          61.6932   81.6423   14.3623 C.3     1  UNL1        0.0216
     14 C          62.8581   81.2630   13.4968 C.3     1  UNL1        0.0216
     15 C          63.9917   84.4371   15.4888 C.3     1  UNL1        0.1412
     16 C          63.4883   85.6236   16.2560 C.ar    1  UNL1        0.0862
     17 C          62.6109   85.5798   17.4719 C.ar    1  UNL1        0.0533
     18 S          62.3543   86.9914   17.9095 S.2     1  UNL1       -0.0642
     19 C          63.0731   87.9077   16.9641 C.ar    1  UNL1        0.1342
     20 N          63.7740   87.0624   15.9422 N.ar    1  UNL1       -0.2389
     21 C          63.7972   84.0877    9.0358 C.3     1  UNL1        0.0022
     22 C          62.7725   85.1584    9.2673 C.3     1  UNL1        0.0270
     23 C          62.0811   85.7996    8.1008 C.3     1  UNL1        0.0022
     24 C          60.9178   89.9857   10.2310 C.3     1  UNL1        0.0459
     25 C          60.2031   89.3322    9.0856 C.ar    1  UNL1       -0.0205
     26 C          59.5604   87.9895    9.2704 C.ar    1  UNL1       -0.0042
     27 C          58.8457   87.3360    8.1250 C.ar    1  UNL1       -0.0003
     28 C          58.7737   88.0251    6.7946 C.ar    1  UNL1       -0.0000
     29 C          59.4164   89.3678    6.6097 C.ar    1  UNL1       -0.0003
     30 C          60.1311   90.0213    7.7551 C.ar    1  UNL1       -0.0042
     31 C          63.2577   90.5305   11.2199 C.3     1  UNL1        0.0216
     32 C          63.9180   91.5815   10.3778 C.3     1  UNL1        0.0217
     33 C          64.8908   92.5392   10.9999 C.3     1  UNL1        0.0792
     34 N          65.9772   92.0268   11.8983 N.am    1  UNL1       -0.2720
     35 C          66.6279   92.9470   12.8883 C.2     1  UNL1        0.4019
     36 O          66.1921   94.3793   12.9798 O.2     1  UNL1       -0.2264
     37 H          66.2631   91.0867   11.8383 H       1  UNL1        0.1527
     38 O          67.7143   92.4346   13.7868 O.3     1  UNL1       -0.4291
     39 C          67.3618   91.7144   15.0544 C.3     1  UNL1        0.2447
     40 C          65.9251   91.5714   15.4612 C.ar    1  UNL1        0.0714
     41 C          65.2195   92.3839   16.5062 C.ar    1  UNL1        0.1053
     42 N          63.8001   91.9054   16.5852 N.ar    1  UNL1       -0.2350
     43 C          63.6284   90.7972   15.5890 C.ar    1  UNL1        0.1343
     44 S          64.9417   90.5908   14.8943 S.2     1  UNL1       -0.0652
     45 C          64.7770   94.0090   10.7234 C.3     1  UNL1        0.0460
     46 C          65.8088   94.6953    9.8780 C.ar    1  UNL1       -0.0205
     47 C          66.9457   93.9086    9.2962 C.ar    1  UNL1       -0.0042
     48 C          67.9774   94.5948    8.4508 C.ar    1  UNL1       -0.0003
     49 C          67.8721   96.0677    8.1872 C.ar    1  UNL1       -0.0000
     50 C          66.7352   96.8544    8.7690 C.ar    1  UNL1       -0.0003
     51 C          65.7035   96.1682    9.6144 C.ar    1  UNL1       -0.0042
@<TRIPOS>BOND
     1    21    22    1
     2    22    23    1
     3    22     6    1
     4     6     7    1
     5     7     8   am
     6     8     9    2
     7     8    10   am
     8    10    15    1
     9    15    16    1
    10    16    17   ar
    11    17    18   ar
    12    18    19   ar
    13    19    20   ar
    14    10    12    1
    15    12    13    1
    16    13    14    1
    17     6     2    1
    18     2     3    2
    19     2     4   am
    20     4     1    1
    21     1    31    1
    22    31    32    1
    23    33    32    1
    24    33    45    1
    25    45    46    1
    26    46    47   ar
    27    47    48   ar
    28    48    49   ar
    29    49    50   ar
    30    50    51   ar
    31    33    34    1
    32    34    35   am
    33    35    36    2
    34    35    38    1
    35    38    39    1
    36    39    40    1
    37    40    41   ar
    38    41    42   ar
    39    42    43   ar
    40    43    44   ar
    41     1    24    1
    42    24    25    1
    43    25    26   ar
    44    26    27   ar
    45    27    28   ar
    46    28    29   ar
    47    29    30   ar
    48    20    16   ar
    49    14    12    1
    50    51    46   ar
    51    44    40   ar
    52    30    25   ar
    53     7    11    1
    54     4     5    1
    55    34    37    1
@<TRIPOS>MOLECULE
*****
 51 55 0 0 0
SMALL
GASTEIGER

@<TRIPOS>ATOM
      1 C          62.2295   89.2783   10.9829 C.3     1  UNL1        0.0760
      2 C          61.9186   86.7008   11.0837 C.2     1  UNL1        0.2403
      3 O          60.7275   86.8795   11.9777 O.2     1  UNL1       -0.2733
      4 N          62.6696   87.9003   10.5862 N.am    1  UNL1       -0.3043
      5 H          63.4514   87.7830    9.9994 H       1  UNL1        0.1494
      6 C          62.3587   85.3228   10.6871 C.3     1  UNL1        0.1496
      7 N          62.3500   84.2131   11.6964 N.am    1  UNL1       -0.2824
      8 C          62.8472   84.4625   13.0894 C.2     1  UNL1        0.3045
      9 O          63.3530   85.8216   13.4732 O.2     1  UNL1       -0.2526
     10 N          62.8386   83.3530   14.0988 N.am    1  UNL1       -0.2601
     11 H          62.0181   83.3212   11.4445 H       1  UNL1        0.1514
     12 C          62.3328   81.9940   13.7150 C.3     1  UNL1        0.0773
     13 C          62.4932   80.7189   12.9415 C.3     1  UNL1        0.0216
     14 C          61.2962   80.9153   13.8239 C.3     1  UNL1        0.0216
     15 C          63.3357   83.6024   15.4918 C.3     1  UNL1        0.1412
     16 C          62.9313   84.8496   16.2204 C.ar    1  UNL1        0.0862
     17 C          63.8617   85.8470   16.8448 C.ar    1  UNL1        0.0533
     18 S          63.0309   86.9322   17.4629 S.2     1  UNL1       -0.0642
     19 C          61.5871   86.6056   17.2206 C.ar    1  UNL1        0.1342
     20 N          61.5255   85.3185   16.4527 N.ar    1  UNL1       -0.2389
     21 C          62.1790   85.7960    8.1388 C.3     1  UNL1        0.0022
     22 C          62.8074   85.0544    9.2812 C.3     1  UNL1        0.0270
     23 C          63.8846   84.0443    9.0177 C.3     1  UNL1        0.0022
     24 C          61.0305   89.8997   10.3299 C.3     1  UNL1        0.0459
     25 C          60.2971   89.1604    9.2502 C.ar    1  UNL1       -0.0205
     26 C          60.1904   89.7518    7.8758 C.ar    1  UNL1       -0.0042
     27 C          59.4570   89.0125    6.7962 C.ar    1  UNL1       -0.0003
     28 C          58.8303   87.6820    7.0908 C.ar    1  UNL1       -0.0000
     29 C          58.9371   87.0906    8.4653 C.ar    1  UNL1       -0.0003
     30 C          59.6704   87.8298    9.5449 C.ar    1  UNL1       -0.0042
     31 C          62.9883   90.0349   12.0324 C.3     1  UNL1        0.0216
     32 C          63.5623   91.3842   11.7165 C.3     1  UNL1        0.0217
     33 C          64.6758   91.9404   12.5537 C.3     1  UNL1        0.0792
     34 N          65.2078   93.3152   12.2767 N.am    1  UNL1       -0.2720
     35 C          65.1343   93.8825   10.8900 C.2     1  UNL1        0.4019
     36 O          64.5290   93.0749    9.7804 O.2     1  UNL1       -0.2264
     37 H          65.6050   93.8453   13.0050 H       1  UNL1        0.1527
     38 O          65.6662   95.2574   10.6130 O.3     1  UNL1       -0.4291
     39 C          67.0159   95.4261    9.9808 C.3     1  UNL1        0.2447
     40 C          67.7373   94.2349    9.4234 C.ar    1  UNL1        0.0714
     41 C          68.0399   93.9853    7.9756 C.ar    1  UNL1        0.1053
     42 N          68.7723   92.6803    7.8734 N.ar    1  UNL1       -0.2350
     43 C          68.9223   92.1232    9.2580 C.ar    1  UNL1        0.1343
     44 S          68.2826   93.0841   10.2160 S.2     1  UNL1       -0.0652
     45 C          65.2574   91.1216   13.6679 C.3     1  UNL1        0.0460
     46 C          66.4215   91.6459   14.4553 C.ar    1  UNL1       -0.0205
     47 C          66.2010   92.2382   15.8157 C.ar    1  UNL1       -0.0042
     48 C          67.3651   92.7624   16.6030 C.ar    1  UNL1       -0.0003
     49 C          68.7497   92.6944   16.0300 C.ar    1  UNL1       -0.0000
     50 C          68.9702   92.1022   14.6697 C.ar    1  UNL1       -0.0003
     51 C          67.8061   91.5779   13.8823 C.ar    1  UNL1       -0.0042
@<TRIPOS>BOND
     1    21    22    1
     2    22    23    1
     3    22     6    1
     4     6     7    1
     5     7     8   am
     6     8     9    2
     7     8    10   am
     8    10    15    1
     9    15    16    1
    10    16    17   ar
    11    17    18   ar
    12    18    19   ar
    13    19    20   ar
    14    10    12    1
    15    12    13    1
    16    13    14    1
    17     6     2    1
    18     2     3    2
    19     2     4   am
    20     4     1    1
    21     1    31    1
    22    31    32    1
    23    33    32    1
    24    33    45    1
    25    45    46    1
    26    46    47   ar
    27    47    48   ar
    28    48    49   ar
    29    49    50   ar
    30    50    51   ar
    31    33    34    1
    32    34    35   am
    33    35    36    2
    34    35    38    1
    35    38    39    1
    36    39    40    1
    37    40    41   ar
    38    41    42   ar
    39    42    43   ar
    40    43    44   ar
    41     1    24    1
    42    24    25    1
    43    25    26   ar
    44    26    27   ar
    45    27    28   ar
    46    28    29   ar
    47    29    30   ar
    48    20    16   ar
    49    14    12    1
    50    51    46   ar
    51    44    40   ar
    52    30    25   ar
    53     7    11    1
    54     4     5    1
    55    34    37    1
