@<TRIPOS>MOLECULE
*****
 29 33 0 0 0
SMALL
GASTEIGER

@<TRIPOS>ATOM
      1 O          61.1670   89.0680   10.0185 O.2     1  UNL1       -0.2638
      2 C          61.8925   88.0542   10.8527 C.2     1  UNL1        0.3160
      3 N          61.7660   86.5934   10.5362 N.am    1  UNL1       -0.1720
      4 C          62.4914   85.5796   11.3704 C.ar    1  UNL1        0.0775
      5 C          62.3649   84.1189   11.0539 C.ar    1  UNL1        0.0167
      6 C          63.0903   83.1051   11.8881 C.ar    1  UNL1        0.0013
      7 C          63.9422   83.5521   13.0390 C.ar    1  UNL1        0.0002
      8 C          64.0688   85.0128   13.3555 C.ar    1  UNL1        0.0051
      9 C          63.3434   86.0266   12.5213 C.ar    1  UNL1        0.0623
     10 C          63.4699   87.4874   12.8378 C.2     1  UNL1        0.2419
     11 N          64.2313   88.2215   13.9013 N.2     1  UNL1       -0.0302
     12 C          63.9765   89.6891   13.7244 C.2     1  UNL1        0.3787
     13 N          63.0576   89.8619   12.5515 N.2     1  UNL1       -0.0255
     14 C          62.7445   88.5011   12.0036 C.2     1  UNL1        0.2907
     15 C          64.5415   90.7905   14.5716 C.ar    1  UNL1        0.1263
     16 C          65.5496   91.7392   13.9940 C.ar    1  UNL1        0.1484
     17 F          65.9929   91.5864   12.5691 F       1  UNL1       -0.2039
     18 C          66.1145   92.8405   14.8412 C.ar    1  UNL1        0.0300
     19 C          65.6713   92.9933   16.2661 C.ar    1  UNL1        0.0032
     20 C          64.6631   92.0446   16.8437 C.ar    1  UNL1        0.0118
     21 C          64.0982   90.9433   15.9965 C.ar    1  UNL1        0.0673
     22 CL         63.0900   89.9946   16.5741 Cl      1  UNL1       -0.0819
     23 C          62.9638   81.6443   11.5716 C.ar    1  UNL1        0.0001
     24 C          63.1045   81.1688   10.1560 C.ar    1  UNL1        0.0009
     25 C          62.9780   79.7081    9.8394 C.ar    1  UNL1        0.0114
     26 C          62.7107   78.7228   10.9385 C.ar    1  UNL1        0.0577
     27 CL         62.5842   77.2621   10.6219 Cl      1  UNL1       -0.0822
     28 C          62.5699   79.1984   12.3541 C.ar    1  UNL1        0.0114
     29 C          62.6965   80.6592   12.6707 C.ar    1  UNL1        0.0009
@<TRIPOS>BOND
     1     1     2    2
     2     2     3    1
     3     3     4    2
     4     4     5   ar
     5     5     6   ar
     6     6    23    1
     7    23    24   ar
     8    24    25   ar
     9    25    26   ar
    10    26    27    1
    11    26    28   ar
    12    28    29   ar
    13     6     7   ar
    14     7     8   ar
    15     8     9   ar
    16     9    10    2
    17    10    11    1
    18    11    12    2
    19    12    15    1
    20    15    16   ar
    21    16    17    1
    22    16    18   ar
    23    18    19   ar
    24    19    20   ar
    25    20    21   ar
    26    21    22    1
    27    12    13    1
    28    13    14    2
    29    14     2    1
    30     9     4   ar
    31    14    10    1
    32    29    23   ar
    33    21    15   ar
@<TRIPOS>MOLECULE
*****
 29 33 0 0 0
SMALL
GASTEIGER

@<TRIPOS>ATOM
      1 O          60.8727   89.8138   10.0118 O.2     1  UNL1       -0.2638
      2 C          61.7107   88.9696   10.9257 C.2     1  UNL1        0.3160
      3 N          61.4401   87.4991   11.0464 N.am    1  UNL1       -0.1720
      4 C          62.2780   86.6549   11.9603 C.ar    1  UNL1        0.0775
      5 C          62.0074   85.1844   12.0811 C.ar    1  UNL1        0.0167
      6 C          62.8453   84.3403   12.9949 C.ar    1  UNL1        0.0013
      7 C          63.9538   84.9665   13.7881 C.ar    1  UNL1        0.0002
      8 C          64.2244   86.4369   13.6674 C.ar    1  UNL1        0.0051
      9 C          63.3865   87.2811   12.7535 C.ar    1  UNL1        0.0623
     10 C          63.6570   88.7516   12.6327 C.2     1  UNL1        0.2419
     11 N          64.6732   89.6419   13.2844 N.2     1  UNL1       -0.0302
     12 C          64.4633   91.0364   12.7732 C.2     1  UNL1        0.3787
     13 N          63.3175   91.0079   11.8057 N.2     1  UNL1       -0.0255
     14 C          62.8191   89.5958   11.7189 C.2     1  UNL1        0.2907
     15 C          65.2596   92.2470   13.1615 C.ar    1  UNL1        0.1263
     16 C          65.7191   92.4195   14.5789 C.ar    1  UNL1        0.1484
     17 F          65.3824   91.3815   15.6081 F       1  UNL1       -0.2039
     18 C          66.5153   93.6300   14.9671 C.ar    1  UNL1        0.0300
     19 C          66.8520   94.6679   13.9378 C.ar    1  UNL1        0.0032
     20 C          66.3925   94.4954   12.5205 C.ar    1  UNL1        0.0118
     21 C          65.5963   93.2849   12.1323 C.ar    1  UNL1        0.0673
     22 CL         65.1367   93.1124   10.7148 Cl      1  UNL1       -0.0819
     23 C          62.5747   82.8698   13.1157 C.ar    1  UNL1        0.0001
     24 C          61.8282   82.3396   14.3038 C.ar    1  UNL1        0.0009
     25 C          61.5576   80.8692   14.4246 C.ar    1  UNL1        0.0114
     26 C          62.0336   79.9288   13.3572 C.ar    1  UNL1        0.0577
     27 CL         61.7630   78.4584   13.4780 Cl      1  UNL1       -0.0822
     28 C          62.7801   80.4590   12.1691 C.ar    1  UNL1        0.0114
     29 C          63.0507   81.9295   12.0484 C.ar    1  UNL1        0.0009
@<TRIPOS>BOND
     1     1     2    2
     2     2     3    1
     3     3     4    2
     4     4     5   ar
     5     5     6   ar
     6     6    23    1
     7    23    24   ar
     8    24    25   ar
     9    25    26   ar
    10    26    27    1
    11    26    28   ar
    12    28    29   ar
    13     6     7   ar
    14     7     8   ar
    15     8     9   ar
    16     9    10    2
    17    10    11    1
    18    11    12    2
    19    12    15    1
    20    15    16   ar
    21    16    17    1
    22    16    18   ar
    23    18    19   ar
    24    19    20   ar
    25    20    21   ar
    26    21    22    1
    27    12    13    1
    28    13    14    2
    29    14     2    1
    30     9     4   ar
    31    14    10    1
    32    29    23   ar
    33    21    15   ar
@<TRIPOS>MOLECULE
*****
 29 33 0 0 0
SMALL
GASTEIGER

@<TRIPOS>ATOM
      1 O          56.0292   91.0173    5.4590 O.2     1  UNL1       -0.2638
      2 C          57.4753   91.1568    5.0857 C.2     1  UNL1        0.3160
      3 N          57.8674   91.9906    3.9021 N.am    1  UNL1       -0.1720
      4 C          59.3135   92.1301    3.5287 C.ar    1  UNL1        0.0775
      5 C          59.7055   92.9639    2.3451 C.ar    1  UNL1        0.0167
      6 C          61.1516   93.1033    1.9719 C.ar    1  UNL1        0.0013
      7 C          62.2057   92.4089    2.7822 C.ar    1  UNL1        0.0002
      8 C          61.8137   91.5750    3.9658 C.ar    1  UNL1        0.0051
      9 C          60.3676   91.4356    4.3391 C.ar    1  UNL1        0.0623
     10 C          59.9755   90.6017    5.5228 C.2     1  UNL1        0.2419
     11 N          60.7859   89.8057    6.5022 N.2     1  UNL1       -0.0302
     12 C          59.8407   89.1742    7.4809 C.2     1  UNL1        0.3787
     13 N          58.4461   89.5801    7.1062 N.2     1  UNL1       -0.0255
     14 C          58.5294   90.4623    5.8960 C.2     1  UNL1        0.2907
     15 C          60.2229   88.2918    8.6322 C.ar    1  UNL1        0.1263
     16 C          60.5422   86.8456    8.3949 C.ar    1  UNL1        0.1484
     17 F          60.4793   86.2816    7.0064 F       1  UNL1       -0.2039
     18 C          60.9245   85.9633    9.5461 C.ar    1  UNL1        0.0300
     19 C          60.9874   86.5272   10.9346 C.ar    1  UNL1        0.0032
     20 C          60.6682   87.9735   11.1719 C.ar    1  UNL1        0.0118
     21 C          60.2859   88.8558   10.0207 C.ar    1  UNL1        0.0673
     22 CL         59.9666   90.3021   10.2580 Cl      1  UNL1       -0.0819
     23 C          61.5437   93.9372    0.7882 C.ar    1  UNL1        0.0001
     24 C          61.6011   93.3202   -0.5778 C.ar    1  UNL1        0.0009
     25 C          61.9931   94.1540   -1.7615 C.ar    1  UNL1        0.0114
     26 C          62.3278   95.6049   -1.5791 C.ar    1  UNL1        0.0577
     27 CL         62.7198   96.4387   -2.7627 Cl      1  UNL1       -0.0822
     28 C          62.2703   96.2218   -0.2131 C.ar    1  UNL1        0.0114
     29 C          61.8783   95.3879    0.9706 C.ar    1  UNL1        0.0009
@<TRIPOS>BOND
     1     1     2    2
     2     2     3    1
     3     3     4    2
     4     4     5   ar
     5     5     6   ar
     6     6    23    1
     7    23    24   ar
     8    24    25   ar
     9    25    26   ar
    10    26    27    1
    11    26    28   ar
    12    28    29   ar
    13     6     7   ar
    14     7     8   ar
    15     8     9   ar
    16     9    10    2
    17    10    11    1
    18    11    12    2
    19    12    15    1
    20    15    16   ar
    21    16    17    1
    22    16    18   ar
    23    18    19   ar
    24    19    20   ar
    25    20    21   ar
    26    21    22    1
    27    12    13    1
    28    13    14    2
    29    14     2    1
    30     9     4   ar
    31    14    10    1
    32    29    23   ar
    33    21    15   ar
@<TRIPOS>MOLECULE
*****
 29 33 0 0 0
SMALL
GASTEIGER

@<TRIPOS>ATOM
      1 O          63.5387   88.9646   13.0686 O.2     1  UNL1       -0.2638
      2 C          62.7638   88.3836   11.9230 C.2     1  UNL1        0.3160
      3 N          62.2087   89.2841   10.8597 N.am    1  UNL1       -0.1720
      4 C          61.4338   88.7031    9.7141 C.ar    1  UNL1        0.0775
      5 C          60.8787   89.6036    8.6508 C.ar    1  UNL1        0.0167
      6 C          60.1039   89.0226    7.5054 C.ar    1  UNL1        0.0013
      7 C          59.8843   87.5410    7.4233 C.ar    1  UNL1        0.0002
      8 C          60.4394   86.6405    8.4866 C.ar    1  UNL1        0.0051
      9 C          61.2142   87.2215    9.6321 C.ar    1  UNL1        0.0623
     10 C          61.7694   86.3210   10.6955 C.2     1  UNL1        0.2419
     11 N          61.7142   84.8335   10.8803 N.2     1  UNL1       -0.0302
     12 C          62.4549   84.4952   12.1401 C.2     1  UNL1        0.3787
     13 N          62.9679   85.7736   12.7338 N.2     1  UNL1       -0.0255
     14 C          62.5442   86.9020   11.8410 C.2     1  UNL1        0.2907
     15 C          62.6487   83.1198   12.7066 C.ar    1  UNL1        0.1263
     16 C          62.2520   82.8297   14.1238 C.ar    1  UNL1        0.1484
     17 F          61.6616   83.9150   14.9745 F       1  UNL1       -0.2039
     18 C          62.4457   81.4544   14.6903 C.ar    1  UNL1        0.0300
     19 C          63.0361   80.3692   13.8396 C.ar    1  UNL1        0.0032
     20 C          63.4328   80.6592   12.4224 C.ar    1  UNL1        0.0118
     21 C          63.2390   82.0345   11.8559 C.ar    1  UNL1        0.0673
     22 CL         63.6357   82.3247   10.4387 Cl      1  UNL1       -0.0819
     23 C          59.5487   89.9231    6.4419 C.ar    1  UNL1        0.0001
     24 C          58.0643   90.0661    6.2801 C.ar    1  UNL1        0.0009
     25 C          57.5091   90.9666    5.2167 C.ar    1  UNL1        0.0114
     26 C          58.4383   91.7242    4.3151 C.ar    1  UNL1        0.0577
     27 CL         57.8830   92.6247    3.2517 Cl      1  UNL1       -0.0822
     28 C          59.9226   91.5812    4.4769 C.ar    1  UNL1        0.0114
     29 C          60.4779   90.6806    5.5403 C.ar    1  UNL1        0.0009
@<TRIPOS>BOND
     1     1     2    2
     2     2     3    1
     3     3     4    2
     4     4     5   ar
     5     5     6   ar
     6     6    23    1
     7    23    24   ar
     8    24    25   ar
     9    25    26   ar
    10    26    27    1
    11    26    28   ar
    12    28    29   ar
    13     6     7   ar
    14     7     8   ar
    15     8     9   ar
    16     9    10    2
    17    10    11    1
    18    11    12    2
    19    12    15    1
    20    15    16   ar
    21    16    17    1
    22    16    18   ar
    23    18    19   ar
    24    19    20   ar
    25    20    21   ar
    26    21    22    1
    27    12    13    1
    28    13    14    2
    29    14     2    1
    30     9     4   ar
    31    14    10    1
    32    29    23   ar
    33    21    15   ar
@<TRIPOS>MOLECULE
*****
 29 33 0 0 0
SMALL
GASTEIGER

@<TRIPOS>ATOM
      1 O          56.2141   91.4751    5.2315 O.2     1  UNL1       -0.2638
      2 C          57.6711   91.4799    4.8750 C.2     1  UNL1        0.3160
      3 N          58.1447   92.2286    3.6647 N.am    1  UNL1       -0.1720
      4 C          59.6017   92.2335    3.3082 C.ar    1  UNL1        0.0775
      5 C          60.0752   92.9822    2.0978 C.ar    1  UNL1        0.0167
      6 C          61.5322   92.9870    1.7414 C.ar    1  UNL1        0.0013
      7 C          62.5157   92.2430    2.5953 C.ar    1  UNL1        0.0002
      8 C          62.0422   91.4943    3.8057 C.ar    1  UNL1        0.0051
      9 C          60.5852   91.4895    4.1622 C.ar    1  UNL1        0.0623
     10 C          60.1116   90.7407    5.3726 C.2     1  UNL1        0.2419
     11 N          60.8419   89.9226    6.3960 N.2     1  UNL1       -0.0302
     12 C          59.8362   89.4121    7.3849 C.2     1  UNL1        0.3787
     13 N          58.4844   89.9148    6.9727 N.2     1  UNL1       -0.0255
     14 C          58.6546   90.7359    5.7290 C.2     1  UNL1        0.2907
     15 C          60.1307   88.5502    8.5768 C.ar    1  UNL1        0.1263
     16 C          60.2140   89.1632    9.9433 C.ar    1  UNL1        0.1484
     17 F          60.0030   90.6379   10.1180 F       1  UNL1       -0.2039
     18 C          60.5085   88.3013   11.1351 C.ar    1  UNL1        0.0300
     19 C          60.7195   86.8265   10.9604 C.ar    1  UNL1        0.0032
     20 C          60.6362   86.2136    9.5940 C.ar    1  UNL1        0.0118
     21 C          60.3417   87.0755    8.4021 C.ar    1  UNL1        0.0673
     22 CL         60.2583   86.4626    7.0356 Cl      1  UNL1       -0.0819
     23 C          62.0058   93.7358    0.5309 C.ar    1  UNL1        0.0001
     24 C          62.7738   95.0141    0.6927 C.ar    1  UNL1        0.0009
     25 C          63.2474   95.7629   -0.5176 C.ar    1  UNL1        0.0114
     26 C          62.9530   95.2333   -1.8899 C.ar    1  UNL1        0.0577
     27 CL         63.4266   95.9821   -3.1002 Cl      1  UNL1       -0.0822
     28 C          62.1851   93.9550   -2.0517 C.ar    1  UNL1        0.0114
     29 C          61.7115   93.2062   -0.8413 C.ar    1  UNL1        0.0009
@<TRIPOS>BOND
     1     1     2    2
     2     2     3    1
     3     3     4    2
     4     4     5   ar
     5     5     6   ar
     6     6    23    1
     7    23    24   ar
     8    24    25   ar
     9    25    26   ar
    10    26    27    1
    11    26    28   ar
    12    28    29   ar
    13     6     7   ar
    14     7     8   ar
    15     8     9   ar
    16     9    10    2
    17    10    11    1
    18    11    12    2
    19    12    15    1
    20    15    16   ar
    21    16    17    1
    22    16    18   ar
    23    18    19   ar
    24    19    20   ar
    25    20    21   ar
    26    21    22    1
    27    12    13    1
    28    13    14    2
    29    14     2    1
    30     9     4   ar
    31    14    10    1
    32    29    23   ar
    33    21    15   ar
@<TRIPOS>MOLECULE
*****
 29 33 0 0 0
SMALL
GASTEIGER

@<TRIPOS>ATOM
      1 O          59.6590   91.3621   -0.0646 O.2     1  UNL1       -0.2638
      2 C          59.2293   92.6626   -0.6765 C.2     1  UNL1        0.3160
      3 N          57.8086   92.8498   -1.1196 N.am    1  UNL1       -0.1720
      4 C          57.3789   94.1503   -1.7314 C.ar    1  UNL1        0.0775
      5 C          55.9581   94.3375   -2.1745 C.ar    1  UNL1        0.0167
      6 C          55.5286   95.6379   -2.7863 C.ar    1  UNL1        0.0013
      7 C          56.5197   96.7511   -2.9550 C.ar    1  UNL1        0.0002
      8 C          57.9404   96.5638   -2.5119 C.ar    1  UNL1        0.0051
      9 C          58.3700   95.2634   -1.9001 C.ar    1  UNL1        0.0623
     10 C          59.7908   95.0762   -1.4570 C.2     1  UNL1        0.2419
     11 N          60.9824   95.9865   -1.4954 N.2     1  UNL1       -0.0302
     12 C          62.1485   95.2486   -0.9072 C.2     1  UNL1        0.3787
     13 N          61.6776   93.8823   -0.5054 N.2     1  UNL1       -0.0255
     14 C          60.2204   93.7758   -0.8452 C.2     1  UNL1        0.2907
     15 C          63.5410   95.7833   -0.7488 C.ar    1  UNL1        0.1263
     16 C          64.0608   96.1295    0.6149 C.ar    1  UNL1        0.1484
     17 F          63.1881   95.9412    1.8203 F       1  UNL1       -0.2039
     18 C          65.4533   96.6641    0.7733 C.ar    1  UNL1        0.0300
     19 C          66.3260   96.8525   -0.4320 C.ar    1  UNL1        0.0032
     20 C          65.8062   96.5062   -1.7958 C.ar    1  UNL1        0.0118
     21 C          64.4137   95.9716   -1.9542 C.ar    1  UNL1        0.0673
     22 CL         63.8939   95.6253   -3.3180 Cl      1  UNL1       -0.0819
     23 C          54.1077   95.8252   -3.2295 C.ar    1  UNL1        0.0001
     24 C          53.8050   96.1393   -4.6646 C.ar    1  UNL1        0.0009
     25 C          52.3843   96.3265   -5.1078 C.ar    1  UNL1        0.0114
     26 C          51.2662   96.1997   -4.1158 C.ar    1  UNL1        0.0577
     27 CL         49.8455   96.3870   -4.5590 Cl      1  UNL1       -0.0822
     28 C          51.5690   95.8856   -2.6807 C.ar    1  UNL1        0.0114
     29 C          52.9898   95.6983   -2.2375 C.ar    1  UNL1        0.0009
@<TRIPOS>BOND
     1     1     2    2
     2     2     3    1
     3     3     4    2
     4     4     5   ar
     5     5     6   ar
     6     6    23    1
     7    23    24   ar
     8    24    25   ar
     9    25    26   ar
    10    26    27    1
    11    26    28   ar
    12    28    29   ar
    13     6     7   ar
    14     7     8   ar
    15     8     9   ar
    16     9    10    2
    17    10    11    1
    18    11    12    2
    19    12    15    1
    20    15    16   ar
    21    16    17    1
    22    16    18   ar
    23    18    19   ar
    24    19    20   ar
    25    20    21   ar
    26    21    22    1
    27    12    13    1
    28    13    14    2
    29    14     2    1
    30     9     4   ar
    31    14    10    1
    32    29    23   ar
    33    21    15   ar
