@<TRIPOS>MOLECULE
*****
 41 44 0 0 0
SMALL
GASTEIGER

@<TRIPOS>ATOM
      1 C          63.5617   92.3675    9.7535 C.3     1  UNL1        0.0521
      2 C          64.1710   92.2472   11.1189 C.ar    1  UNL1        0.0601
      3 N          65.1059   93.3081   11.6191 N.ar    1  UNL1       -0.2541
      4 C          65.7151   93.1878   12.9845 C.ar    1  UNL1        0.0588
      5 C          66.6500   94.2489   13.4848 C.3     1  UNL1        0.0519
      6 C          65.3895   92.0066   13.8497 C.ar    1  UNL1        0.0368
      7 C          64.4546   90.9456   13.3494 C.ar    1  UNL1        0.0487
      8 C          63.8453   91.0659   11.9840 C.ar    1  UNL1        0.0267
      9 N          64.1289   89.7643   14.2146 N.pl3   1  UNL1       -0.3076
     10 C          63.3259   89.9510   15.4677 C.3     1  UNL1        0.0908
     11 C          63.0003   88.7697   16.3329 C.3     1  UNL1        0.0215
     12 C          63.4776   87.4016   15.9449 C.3     1  UNL1        0.0033
     13 C          63.7033   85.9197   15.9985 C.3     1  UNL1        0.0001
     14 C          62.7530   87.0737   17.2166 C.3     1  UNL1        0.0001
     15 C          64.2806   87.2149   14.6917 C.3     1  UNL1        0.0215
     16 C          64.6062   88.3962   13.8266 C.3     1  UNL1        0.0908
     17 C          62.9104   90.0049   11.4838 C.ar    1  UNL1        0.0025
     18 C          63.2429   89.2392   10.2375 C.ar    1  UNL1        0.0032
     19 C          62.3080   88.1782    9.7372 C.ar    1  UNL1        0.0369
     20 C          61.0406   87.8828   10.4833 C.ar    1  UNL1        0.1386
     21 C          60.7082   88.6485   11.7296 C.ar    1  UNL1        0.0369
     22 C          61.6431   89.7095   12.2298 C.ar    1  UNL1        0.0032
     23 O          60.1058   86.8218    9.9830 O.3     1  UNL1       -0.4751
     24 C          60.5889   85.8015    8.9953 C.3     1  UNL1        0.2101
     25 C          62.0504   85.4752    8.9082 C.3     1  UNL1        0.0736
     26 C          62.7060   84.6742    9.9938 C.ar    1  UNL1       -0.0183
     27 C          63.7469   83.6514    9.6468 C.ar    1  UNL1       -0.0018
     28 C          64.4025   82.8505   10.7324 C.ar    1  UNL1        0.0293
     29 C          64.0173   83.0723   12.1650 C.ar    1  UNL1        0.1401
     30 F          64.6730   82.2713   13.2506 F       1  UNL1       -0.2042
     31 C          62.9764   84.0951   12.5121 C.ar    1  UNL1        0.0293
     32 C          62.3208   84.8961   11.4265 C.ar    1  UNL1       -0.0018
     33 C          65.9987   91.8863   15.2151 C.3     1  UNL1        0.1756
     34 C          65.2641   92.4109   16.4130 C.2     1  UNL1        0.0816
     35 O          66.0225   93.0585   17.5336 O.co2   1  UNL1       -0.5464
     36 O          63.7712   92.2881   16.4905 O.co2   1  UNL1       -0.5464
     37 O          67.3426   91.2413   15.3826 O.3     1  UNL1       -0.3509
     38 C          68.5856   91.9868   14.9964 C.3     1  UNL1        0.0938
     39 C          68.4574   91.4733   13.5928 C.3     1  UNL1        0.0297
     40 C          68.7138   92.5002   16.3999 C.3     1  UNL1        0.0297
     41 C          69.8287   92.7322   14.6102 C.3     1  UNL1        0.0297
@<TRIPOS>UNITY_ATOM_ATTR
35 1
charge -1
@<TRIPOS>BOND
     1     1     2    1
     2     2     3   ar
     3     3     4   ar
     4     4     5    1
     5     4     6   ar
     6     6    33    1
     7    33    37    1
     8    37    38    1
     9    38    39    1
    10    38    40    1
    11    38    41    1
    12    33    34    1
    13    34    35   ar
    14    34    36   ar
    15     6     7   ar
    16     7     9    1
    17     9    10    1
    18    10    11    1
    19    11    12    1
    20    12    13    1
    21    12    14    1
    22    12    15    1
    23    15    16    1
    24     7     8   ar
    25     8    17    1
    26    17    18   ar
    27    18    19   ar
    28    19    20   ar
    29    20    23    1
    30    23    24    1
    31    24    25    1
    32    25    26    1
    33    26    27   ar
    34    27    28   ar
    35    28    29   ar
    36    29    30    1
    37    29    31   ar
    38    31    32   ar
    39    20    21   ar
    40    21    22   ar
    41     8     2   ar
    42    22    17   ar
    43    16     9    1
    44    32    26   ar
@<TRIPOS>MOLECULE
*****
 41 44 0 0 0
SMALL
GASTEIGER

@<TRIPOS>ATOM
      1 C          64.4862   87.2709   15.6220 C.3     1  UNL1        0.0521
      2 C          64.0647   86.0866   14.8036 C.ar    1  UNL1        0.0601
      3 N          64.1434   84.7064   15.3857 N.ar    1  UNL1       -0.2541
      4 C          63.7218   83.5221   14.5673 C.ar    1  UNL1        0.0588
      5 C          63.8005   82.1419   15.1494 C.3     1  UNL1        0.0519
      6 C          63.2216   83.7180   13.1668 C.ar    1  UNL1        0.0368
      7 C          63.1429   85.0982   12.5848 C.ar    1  UNL1        0.0487
      8 C          63.5645   86.2825   13.4032 C.ar    1  UNL1        0.0267
      9 N          62.6427   85.2942   11.1842 N.pl3   1  UNL1       -0.3076
     10 C          63.5038   84.9060   10.0190 C.3     1  UNL1        0.0908
     11 C          63.0036   85.1019    8.6185 C.3     1  UNL1        0.0215
     12 C          61.6422   85.6861    8.3832 C.3     1  UNL1        0.0033
     13 C          60.4342   86.1971    7.6555 C.3     1  UNL1        0.0001
     14 C          62.0838   85.4753    6.9653 C.3     1  UNL1        0.0001
     15 C          60.7810   86.0743    9.5485 C.3     1  UNL1        0.0215
     16 C          61.2813   85.8783   10.9489 C.3     1  UNL1        0.0908
     17 C          63.4858   87.6628   12.8210 C.ar    1  UNL1        0.0025
     18 C          64.1006   88.8204   13.5502 C.ar    1  UNL1        0.0032
     19 C          64.0219   90.2006   12.9681 C.ar    1  UNL1        0.0369
     20 C          63.3284   90.4232   11.6568 C.ar    1  UNL1        0.1386
     21 C          62.7136   89.2655   10.9276 C.ar    1  UNL1        0.0369
     22 C          62.7923   87.8852   11.5097 C.ar    1  UNL1        0.0032
     23 O          63.2497   91.8034   11.0747 O.3     1  UNL1       -0.4751
     24 C          64.4268   92.3770   10.3429 C.3     1  UNL1        0.2101
     25 C          65.2601   93.4466   10.9844 C.3     1  UNL1        0.0736
     26 C          66.1717   93.1040   12.1252 C.ar    1  UNL1       -0.0183
     27 C          67.1864   92.0100   11.9720 C.ar    1  UNL1       -0.0018
     28 C          68.0980   91.6674   13.1129 C.ar    1  UNL1        0.0293
     29 C          67.9950   92.4189   14.4070 C.ar    1  UNL1        0.1401
     30 F          68.9066   92.0763   15.5478 F       1  UNL1       -0.2042
     31 C          66.9803   93.5130   14.5602 C.ar    1  UNL1        0.0293
     32 C          66.0686   93.8556   13.4193 C.ar    1  UNL1       -0.0018
     33 C          62.8001   82.5338   12.3484 C.3     1  UNL1        0.1756
     34 C          63.6403   82.0856   11.1895 C.2     1  UNL1        0.0816
     35 O          65.0919   82.4585   11.1270 O.co2   1  UNL1       -0.5464
     36 O          63.0290   81.2646   10.0931 O.co2   1  UNL1       -0.5464
     37 O          61.5383   81.7976   12.6889 O.3     1  UNL1       -0.3509
     38 C          61.6080   80.4791   13.4008 C.3     1  UNL1        0.0938
     39 C          60.3909   80.8450   14.1976 C.3     1  UNL1        0.0297
     40 C          62.8251   80.1133   12.6039 C.3     1  UNL1        0.0297
     41 C          61.6777   79.1606   14.1126 C.3     1  UNL1        0.0297
@<TRIPOS>UNITY_ATOM_ATTR
35 1
charge -1
@<TRIPOS>BOND
     1     1     2    1
     2     2     3   ar
     3     3     4   ar
     4     4     5    1
     5     4     6   ar
     6     6    33    1
     7    33    37    1
     8    37    38    1
     9    38    39    1
    10    38    40    1
    11    38    41    1
    12    33    34    1
    13    34    35   ar
    14    34    36   ar
    15     6     7   ar
    16     7     9    1
    17     9    10    1
    18    10    11    1
    19    11    12    1
    20    12    13    1
    21    12    14    1
    22    12    15    1
    23    15    16    1
    24     7     8   ar
    25     8    17    1
    26    17    18   ar
    27    18    19   ar
    28    19    20   ar
    29    20    23    1
    30    23    24    1
    31    24    25    1
    32    25    26    1
    33    26    27   ar
    34    27    28   ar
    35    28    29   ar
    36    29    30    1
    37    29    31   ar
    38    31    32   ar
    39    20    21   ar
    40    21    22   ar
    41     8     2   ar
    42    22    17   ar
    43    16     9    1
    44    32    26   ar
@<TRIPOS>MOLECULE
*****
 41 44 0 0 0
SMALL
GASTEIGER

@<TRIPOS>ATOM
      1 C          57.0351   92.3843   -1.2053 C.3     1  UNL1        0.0521
      2 C          58.1749   92.9355   -2.0096 C.ar    1  UNL1        0.0601
      3 N          58.0161   93.1514   -3.4854 N.ar    1  UNL1       -0.2541
      4 C          59.1560   93.7026   -4.2897 C.ar    1  UNL1        0.0588
      5 C          58.9971   93.9185   -5.7656 C.3     1  UNL1        0.0519
      6 C          60.4546   94.0380   -3.6181 C.ar    1  UNL1        0.0368
      7 C          60.6134   93.8221   -2.1423 C.ar    1  UNL1        0.0487
      8 C          59.4736   93.2708   -1.3380 C.ar    1  UNL1        0.0267
      9 N          61.9121   94.1574   -1.4707 N.pl3   1  UNL1       -0.3076
     10 C          62.2278   95.5804   -1.1166 C.3     1  UNL1        0.0908
     11 C          63.5265   95.9157   -0.4449 C.3     1  UNL1        0.0215
     12 C          64.5094   94.8281   -0.1275 C.3     1  UNL1        0.0033
     13 C          65.7518   94.1532    0.3734 C.3     1  UNL1        0.0001
     14 C          65.2566   96.0167    0.4006 C.3     1  UNL1        0.0001
     15 C          64.1937   93.4050   -0.4817 C.3     1  UNL1        0.0215
     16 C          62.8951   93.0698   -1.1532 C.3     1  UNL1        0.0908
     17 C          59.6324   93.0550    0.1379 C.ar    1  UNL1        0.0025
     18 C          60.1049   91.7287    0.6553 C.ar    1  UNL1        0.0032
     19 C          60.2638   91.5128    2.1311 C.ar    1  UNL1        0.0369
     20 C          59.9501   92.6232    3.0896 C.ar    1  UNL1        0.1386
     21 C          59.4776   93.9495    2.5722 C.ar    1  UNL1        0.0369
     22 C          59.3187   94.1653    1.0963 C.ar    1  UNL1        0.0032
     23 O          60.1090   92.4073    4.5655 O.3     1  UNL1       -0.4751
     24 C          60.2951   91.0200    5.1047 C.3     1  UNL1        0.2101
     25 C          59.1816   90.3512    5.8548 C.3     1  UNL1        0.0736
     26 C          59.4937   89.4305    6.9972 C.ar    1  UNL1       -0.0183
     27 C          59.0366   88.0025    6.9560 C.ar    1  UNL1       -0.0018
     28 C          59.3487   87.0818    8.0983 C.ar    1  UNL1        0.0293
     29 C          60.1180   87.5892    9.2818 C.ar    1  UNL1        0.1401
     30 F          60.4302   86.6685   10.4242 F       1  UNL1       -0.2042
     31 C          60.5752   89.0173    9.3230 C.ar    1  UNL1        0.0293
     32 C          60.2631   89.9379    8.1807 C.ar    1  UNL1       -0.0018
     33 C          61.5945   94.5892   -4.4224 C.3     1  UNL1        0.1756
     34 C          61.7096   96.0682   -4.6443 C.2     1  UNL1        0.0816
     35 O          60.7214   96.7737   -5.5251 O.co2   1  UNL1       -0.5464
     36 O          62.8131   96.8417   -3.9855 O.co2   1  UNL1       -0.5464
     37 O          62.6191   93.6614   -5.0049 O.3     1  UNL1       -0.3509
     38 C          63.8264   94.2183   -5.6995 C.3     1  UNL1        0.0938
     39 C          63.0311   94.3666   -6.9627 C.3     1  UNL1        0.0297
     40 C          64.6216   94.0699   -4.4364 C.3     1  UNL1        0.0297
     41 C          65.0336   94.7751   -6.3942 C.3     1  UNL1        0.0297
@<TRIPOS>UNITY_ATOM_ATTR
35 1
charge -1
@<TRIPOS>BOND
     1     1     2    1
     2     2     3   ar
     3     3     4   ar
     4     4     5    1
     5     4     6   ar
     6     6    33    1
     7    33    37    1
     8    37    38    1
     9    38    39    1
    10    38    40    1
    11    38    41    1
    12    33    34    1
    13    34    35   ar
    14    34    36   ar
    15     6     7   ar
    16     7     9    1
    17     9    10    1
    18    10    11    1
    19    11    12    1
    20    12    13    1
    21    12    14    1
    22    12    15    1
    23    15    16    1
    24     7     8   ar
    25     8    17    1
    26    17    18   ar
    27    18    19   ar
    28    19    20   ar
    29    20    23    1
    30    23    24    1
    31    24    25    1
    32    25    26    1
    33    26    27   ar
    34    27    28   ar
    35    28    29   ar
    36    29    30    1
    37    29    31   ar
    38    31    32   ar
    39    20    21   ar
    40    21    22   ar
    41     8     2   ar
    42    22    17   ar
    43    16     9    1
    44    32    26   ar
@<TRIPOS>MOLECULE
*****
 41 44 0 0 0
SMALL
GASTEIGER

@<TRIPOS>ATOM
      1 C          65.0403   85.2410   14.5365 C.3     1  UNL1        0.0521
      2 C          64.3143   86.3687   13.8648 C.ar    1  UNL1        0.0601
      3 N          64.3794   87.7518   14.4417 N.ar    1  UNL1       -0.2541
      4 C          63.6534   88.8795   13.7701 C.ar    1  UNL1        0.0588
      5 C          63.7185   90.2626   14.3471 C.3     1  UNL1        0.0519
      6 C          62.8624   88.6242   12.5215 C.ar    1  UNL1        0.0368
      7 C          62.7973   87.2411   11.9446 C.ar    1  UNL1        0.0487
      8 C          63.5233   86.1134   12.6163 C.ar    1  UNL1        0.0267
      9 N          62.0062   86.9858   10.6959 N.pl3   1  UNL1       -0.3076
     10 C          62.6886   86.4507    9.4720 C.3     1  UNL1        0.0908
     11 C          61.8976   86.1953    8.2234 C.3     1  UNL1        0.0215
     12 C          60.4241   86.4750    8.1987 C.3     1  UNL1        0.0033
     13 C          59.0180   86.5818    7.6873 C.3     1  UNL1        0.0001
     14 C          60.6182   85.9770    6.7972 C.3     1  UNL1        0.0001
     15 C          59.7417   87.0102    9.4227 C.3     1  UNL1        0.0215
     16 C          60.5328   87.2655   10.6713 C.3     1  UNL1        0.0908
     17 C          63.4582   84.7303   12.0393 C.ar    1  UNL1        0.0025
     18 C          64.7233   83.9950   11.7093 C.ar    1  UNL1        0.0032
     19 C          64.6583   82.6120   11.1323 C.ar    1  UNL1        0.0369
     20 C          63.3281   81.9641   10.8853 C.ar    1  UNL1        0.1386
     21 C          62.0629   82.6994   11.2153 C.ar    1  UNL1        0.0369
     22 C          62.1280   84.0825   11.7923 C.ar    1  UNL1        0.0032
     23 O          63.2630   80.5811   10.3084 O.3     1  UNL1       -0.4751
     24 C          62.5577   79.4888   11.0564 C.3     1  UNL1        0.2101
     25 C          62.7749   79.3290   12.5319 C.3     1  UNL1        0.0736
     26 C          62.6847   80.5220   13.4368 C.ar    1  UNL1       -0.0183
     27 C          61.3439   81.0872   13.8013 C.ar    1  UNL1       -0.0018
     28 C          61.2537   82.2801   14.7061 C.ar    1  UNL1        0.0293
     29 C          62.5043   82.9079   15.2465 C.ar    1  UNL1        0.1401
     30 F          62.4141   84.1008   16.1513 F       1  UNL1       -0.2042
     31 C          63.8451   82.3427   14.8820 C.ar    1  UNL1        0.0293
     32 C          63.9353   81.1497   13.9771 C.ar    1  UNL1       -0.0018
     33 C          62.1364   89.7519   11.8498 C.3     1  UNL1        0.1756
     34 C          62.5819   90.2327   10.5006 C.2     1  UNL1        0.0816
     35 O          61.8517   89.7891    9.2676 O.co2   1  UNL1       -0.5464
     36 O          63.7575   91.1570   10.3843 O.co2   1  UNL1       -0.5464
     37 O          60.9650   90.3989   12.5274 O.3     1  UNL1       -0.3509
     38 C          59.5966   89.7991   12.3947 C.3     1  UNL1        0.0938
     39 C          59.3696   90.5937   11.1428 C.3     1  UNL1        0.0297
     40 C          59.8235   89.0045   13.6465 C.3     1  UNL1        0.0297
     41 C          58.2281   89.1992   12.2620 C.3     1  UNL1        0.0297
@<TRIPOS>UNITY_ATOM_ATTR
35 1
charge -1
@<TRIPOS>BOND
     1     1     2    1
     2     2     3   ar
     3     3     4   ar
     4     4     5    1
     5     4     6   ar
     6     6    33    1
     7    33    37    1
     8    37    38    1
     9    38    39    1
    10    38    40    1
    11    38    41    1
    12    33    34    1
    13    34    35   ar
    14    34    36   ar
    15     6     7   ar
    16     7     9    1
    17     9    10    1
    18    10    11    1
    19    11    12    1
    20    12    13    1
    21    12    14    1
    22    12    15    1
    23    15    16    1
    24     7     8   ar
    25     8    17    1
    26    17    18   ar
    27    18    19   ar
    28    19    20   ar
    29    20    23    1
    30    23    24    1
    31    24    25    1
    32    25    26    1
    33    26    27   ar
    34    27    28   ar
    35    28    29   ar
    36    29    30    1
    37    29    31   ar
    38    31    32   ar
    39    20    21   ar
    40    21    22   ar
    41     8     2   ar
    42    22    17   ar
    43    16     9    1
    44    32    26   ar
@<TRIPOS>MOLECULE
*****
 41 44 0 0 0
SMALL
GASTEIGER

@<TRIPOS>ATOM
      1 C          64.3083   87.8339   15.3767 C.3     1  UNL1        0.0521
      2 C          64.0545   86.5416   14.6587 C.ar    1  UNL1        0.0601
      3 N          64.2778   85.2360   15.3627 N.ar    1  UNL1       -0.2541
      4 C          64.0240   83.9437   14.6446 C.ar    1  UNL1        0.0588
      5 C          64.2474   82.6381   15.3487 C.3     1  UNL1        0.0519
      6 C          63.5470   83.9570   13.2226 C.ar    1  UNL1        0.0368
      7 C          63.3237   85.2625   12.5186 C.ar    1  UNL1        0.0487
      8 C          63.5775   86.5548   13.2367 C.ar    1  UNL1        0.0267
      9 N          62.8466   85.2758   11.0965 N.pl3   1  UNL1       -0.3076
     10 C          61.4117   85.5872   10.7897 C.3     1  UNL1        0.0908
     11 C          60.9346   85.6005    9.3676 C.3     1  UNL1        0.0215
     12 C          61.8924   85.3024    8.2524 C.3     1  UNL1        0.0033
     13 C          62.4149   85.0864    6.8631 C.3     1  UNL1        0.0001
     14 C          60.6390   85.5387    7.4631 C.3     1  UNL1        0.0001
     15 C          63.3273   84.9910    8.5593 C.3     1  UNL1        0.0215
     16 C          63.8044   84.9777    9.9813 C.3     1  UNL1        0.0908
     17 C          63.3541   87.8604   12.5326 C.ar    1  UNL1        0.0025
     18 C          63.7395   89.1476   13.1994 C.ar    1  UNL1        0.0032
     19 C          63.5162   90.4531   12.4954 C.ar    1  UNL1        0.0369
     20 C          62.9075   90.4715   11.1245 C.ar    1  UNL1        0.1386
     21 C          62.5221   89.1844   10.4577 C.ar    1  UNL1        0.0369
     22 C          62.7455   87.8788   11.1618 C.ar    1  UNL1        0.0032
     23 O          62.6842   91.7771   10.4205 O.3     1  UNL1       -0.4751
     24 C          63.8506   92.5369    9.8616 C.3     1  UNL1        0.2101
     25 C          64.7000   93.3793   10.7664 C.3     1  UNL1        0.0736
     26 C          65.9871   92.8333   11.3098 C.ar    1  UNL1       -0.0183
     27 C          66.1491   92.6241   12.7862 C.ar    1  UNL1       -0.0018
     28 C          67.4362   92.0781   13.3296 C.ar    1  UNL1        0.0293
     29 C          68.5613   91.7413   12.3966 C.ar    1  UNL1        0.1401
     30 F          69.8484   91.1953   12.9400 F       1  UNL1       -0.2042
     31 C          68.3993   91.9504   10.9200 C.ar    1  UNL1        0.0293
     32 C          67.1122   92.4964   10.3766 C.ar    1  UNL1       -0.0018
     33 C          63.2932   82.6647   12.5046 C.3     1  UNL1        0.1756
     34 C          64.4088   81.9841   11.7684 C.2     1  UNL1        0.0816
     35 O          65.4302   81.1873   12.5247 O.co2   1  UNL1       -0.5464
     36 O          64.5032   82.1002   10.2759 O.co2   1  UNL1       -0.5464
     37 O          61.9237   82.0530   12.5228 O.3     1  UNL1       -0.3509
     38 C          61.6791   80.7841   13.2844 C.3     1  UNL1        0.0938
     39 C          60.9213   81.5546   14.3247 C.3     1  UNL1        0.0297
     40 C          62.4369   80.0136   12.2442 C.3     1  UNL1        0.0297
     41 C          61.4345   79.5152   14.0461 C.3     1  UNL1        0.0297
@<TRIPOS>UNITY_ATOM_ATTR
35 1
charge -1
@<TRIPOS>BOND
     1     1     2    1
     2     2     3   ar
     3     3     4   ar
     4     4     5    1
     5     4     6   ar
     6     6    33    1
     7    33    37    1
     8    37    38    1
     9    38    39    1
    10    38    40    1
    11    38    41    1
    12    33    34    1
    13    34    35   ar
    14    34    36   ar
    15     6     7   ar
    16     7     9    1
    17     9    10    1
    18    10    11    1
    19    11    12    1
    20    12    13    1
    21    12    14    1
    22    12    15    1
    23    15    16    1
    24     7     8   ar
    25     8    17    1
    26    17    18   ar
    27    18    19   ar
    28    19    20   ar
    29    20    23    1
    30    23    24    1
    31    24    25    1
    32    25    26    1
    33    26    27   ar
    34    27    28   ar
    35    28    29   ar
    36    29    30    1
    37    29    31   ar
    38    31    32   ar
    39    20    21   ar
    40    21    22   ar
    41     8     2   ar
    42    22    17   ar
    43    16     9    1
    44    32    26   ar
@<TRIPOS>MOLECULE
*****
 41 44 0 0 0
SMALL
GASTEIGER

@<TRIPOS>ATOM
      1 C          64.8136   84.3217   14.8243 C.3     1  UNL1        0.0521
      2 C          64.1664   84.5361   13.4881 C.ar    1  UNL1        0.0601
      3 N          64.1453   83.4270   12.4785 N.ar    1  UNL1       -0.2541
      4 C          63.4981   83.6414   11.1423 C.ar    1  UNL1        0.0588
      5 C          63.4770   82.5323   10.1326 C.3     1  UNL1        0.0519
      6 C          62.8721   84.9648   10.8159 C.ar    1  UNL1        0.0368
      7 C          62.8933   86.0739   11.8256 C.ar    1  UNL1        0.0487
      8 C          63.5404   85.8595   13.1617 C.ar    1  UNL1        0.0267
      9 N          62.2672   87.3974   11.4992 N.pl3   1  UNL1       -0.3076
     10 C          63.0146   88.3953   10.6653 C.3     1  UNL1        0.0908
     11 C          62.3886   89.7188   10.3389 C.3     1  UNL1        0.0215
     12 C          61.0151   90.0443   10.8464 C.3     1  UNL1        0.0033
     13 C          59.7485   90.8085   11.0942 C.3     1  UNL1        0.0001
     14 C          61.3227   91.3077   10.0985 C.3     1  UNL1        0.0001
     15 C          60.2677   89.0463   11.6803 C.3     1  UNL1        0.0215
     16 C          60.8937   87.7229   12.0067 C.3     1  UNL1        0.0908
     17 C          63.5615   86.9687   14.1714 C.ar    1  UNL1        0.0025
     18 C          63.9735   88.3507   13.7588 C.ar    1  UNL1        0.0032
     19 C          63.9947   89.4598   14.7684 C.ar    1  UNL1        0.0369
     20 C          63.6038   89.1869   16.1907 C.ar    1  UNL1        0.1386
     21 C          63.1918   87.8049   16.6033 C.ar    1  UNL1        0.0369
     22 C          63.1707   86.6957   15.5936 C.ar    1  UNL1        0.0032
     23 O          63.6249   90.2960   17.2003 O.3     1  UNL1       -0.4751
     24 C          63.7526   91.7203   16.7473 C.3     1  UNL1        0.2101
     25 C          65.0617   92.4383   16.8903 C.3     1  UNL1        0.0736
     26 C          66.1214   92.2822   15.8402 C.ar    1  UNL1       -0.0183
     27 C          67.5687   92.4210   16.2088 C.ar    1  UNL1       -0.0018
     28 C          68.6284   92.2648   15.1587 C.ar    1  UNL1        0.0293
     29 C          68.2407   91.9700   13.7400 C.ar    1  UNL1        0.1401
     30 F          69.3004   91.8139   12.6899 F       1  UNL1       -0.2042
     31 C          66.7933   91.8312   13.3714 C.ar    1  UNL1        0.0293
     32 C          65.7336   91.9873   14.4215 C.ar    1  UNL1       -0.0018
     33 C          62.2249   85.1792    9.4798 C.3     1  UNL1        0.1756
     34 C          63.0700   85.2795    8.2446 C.2     1  UNL1        0.0816
     35 O          64.1008   86.3629    8.1270 O.co2   1  UNL1       -0.5464
     36 O          62.8843   84.2966    7.1269 O.co2   1  UNL1       -0.5464
     37 O          60.7327   85.2932    9.3788 O.3     1  UNL1       -0.3509
     38 C          60.1162   86.1443    8.3085 C.3     1  UNL1        0.0938
     39 C          60.4342   85.0917    7.2883 C.3     1  UNL1        0.0297
     40 C          59.7982   87.1969    9.3288 C.3     1  UNL1        0.0297
     41 C          59.4997   86.9954    7.2382 C.3     1  UNL1        0.0297
@<TRIPOS>UNITY_ATOM_ATTR
35 1
charge -1
@<TRIPOS>BOND
     1     1     2    1
     2     2     3   ar
     3     3     4   ar
     4     4     5    1
     5     4     6   ar
     6     6    33    1
     7    33    37    1
     8    37    38    1
     9    38    39    1
    10    38    40    1
    11    38    41    1
    12    33    34    1
    13    34    35   ar
    14    34    36   ar
    15     6     7   ar
    16     7     9    1
    17     9    10    1
    18    10    11    1
    19    11    12    1
    20    12    13    1
    21    12    14    1
    22    12    15    1
    23    15    16    1
    24     7     8   ar
    25     8    17    1
    26    17    18   ar
    27    18    19   ar
    28    19    20   ar
    29    20    23    1
    30    23    24    1
    31    24    25    1
    32    25    26    1
    33    26    27   ar
    34    27    28   ar
    35    28    29   ar
    36    29    30    1
    37    29    31   ar
    38    31    32   ar
    39    20    21   ar
    40    21    22   ar
    41     8     2   ar
    42    22    17   ar
    43    16     9    1
    44    32    26   ar
@<TRIPOS>MOLECULE
*****
 41 44 0 0 0
SMALL
GASTEIGER

@<TRIPOS>ATOM
      1 C          63.5283   92.2650    9.6880 C.3     1  UNL1        0.0521
      2 C          64.1298   92.1482   11.0571 C.ar    1  UNL1        0.0601
      3 N          65.0706   93.2047   11.5556 N.ar    1  UNL1       -0.2541
      4 C          65.6721   93.0879   12.9248 C.ar    1  UNL1        0.0588
      5 C          66.6130   94.1445   13.4232 C.3     1  UNL1        0.0519
      6 C          65.3328   91.9145   13.7954 C.ar    1  UNL1        0.0368
      7 C          64.3919   90.8580   13.2969 C.ar    1  UNL1        0.0487
      8 C          63.7904   90.9748   11.9278 C.ar    1  UNL1        0.0267
      9 N          64.0525   89.6846   14.1676 N.pl3   1  UNL1       -0.3076
     10 C          63.2506   89.8863   15.4190 C.3     1  UNL1        0.0908
     11 C          62.9112   88.7129   16.2896 C.3     1  UNL1        0.0215
     12 C          63.3738   87.3378   15.9088 C.3     1  UNL1        0.0033
     13 C          63.5832   85.8538   15.9699 C.3     1  UNL1        0.0001
     14 C          62.6446   87.0241   17.1815 C.3     1  UNL1        0.0001
     15 C          64.1758   87.1361   14.6573 C.3     1  UNL1        0.0215
     16 C          64.5152   88.3095   13.7867 C.3     1  UNL1        0.0908
     17 C          62.8495   89.9182   11.4293 C.ar    1  UNL1        0.0025
     18 C          61.4512   89.8449   11.9672 C.ar    1  UNL1        0.0032
     19 C          60.5104   88.7884   11.4687 C.ar    1  UNL1        0.0369
     20 C          60.9678   87.8051   10.4324 C.ar    1  UNL1        0.1386
     21 C          62.3661   87.8784    9.8945 C.ar    1  UNL1        0.0369
     22 C          63.3070   88.9350   10.3930 C.ar    1  UNL1        0.0032
     23 O          60.0269   86.7486    9.9339 O.3     1  UNL1       -0.4751
     24 C          59.6115   86.7337    8.4927 C.3     1  UNL1        0.2101
     25 C          58.5044   87.6296    8.0220 C.3     1  UNL1        0.0736
     26 C          58.8085   88.7839    7.1137 C.ar    1  UNL1       -0.0183
     27 C          57.6913   89.5148    6.4299 C.ar    1  UNL1       -0.0018
     28 C          57.9955   90.6691    5.5216 C.ar    1  UNL1        0.0293
     29 C          59.4168   91.0925    5.2970 C.ar    1  UNL1        0.1401
     30 F          59.7210   92.2468    4.3886 F       1  UNL1       -0.2042
     31 C          60.5341   90.3615    5.9808 C.ar    1  UNL1        0.0293
     32 C          60.2300   89.2072    6.8891 C.ar    1  UNL1       -0.0018
     33 C          65.9343   91.7977   15.1645 C.3     1  UNL1        0.1756
     34 C          65.1852   92.3096   16.3590 C.2     1  UNL1        0.0816
     35 O          63.6896   92.2050   16.4078 O.co2   1  UNL1       -0.5464
     36 O          65.9316   92.9262   17.5047 O.co2   1  UNL1       -0.5464
     37 O          67.2848   91.1690   15.3392 O.3     1  UNL1       -0.3509
     38 C          68.5236   91.9508   15.0162 C.3     1  UNL1        0.0938
     39 C          68.4554   91.4721   13.5962 C.3     1  UNL1        0.0297
     40 C          68.5918   92.4295   16.4361 C.3     1  UNL1        0.0297
     41 C          69.7623   92.7326   14.6931 C.3     1  UNL1        0.0297
@<TRIPOS>UNITY_ATOM_ATTR
35 1
charge -1
@<TRIPOS>BOND
     1     1     2    1
     2     2     3   ar
     3     3     4   ar
     4     4     5    1
     5     4     6   ar
     6     6    33    1
     7    33    37    1
     8    37    38    1
     9    38    39    1
    10    38    40    1
    11    38    41    1
    12    33    34    1
    13    34    35   ar
    14    34    36   ar
    15     6     7   ar
    16     7     9    1
    17     9    10    1
    18    10    11    1
    19    11    12    1
    20    12    13    1
    21    12    14    1
    22    12    15    1
    23    15    16    1
    24     7     8   ar
    25     8    17    1
    26    17    18   ar
    27    18    19   ar
    28    19    20   ar
    29    20    23    1
    30    23    24    1
    31    24    25    1
    32    25    26    1
    33    26    27   ar
    34    27    28   ar
    35    28    29   ar
    36    29    30    1
    37    29    31   ar
    38    31    32   ar
    39    20    21   ar
    40    21    22   ar
    41     8     2   ar
    42    22    17   ar
    43    16     9    1
    44    32    26   ar
@<TRIPOS>MOLECULE
*****
 41 44 0 0 0
SMALL
GASTEIGER

@<TRIPOS>ATOM
      1 C          63.2427   92.1089    9.6779 C.3     1  UNL1        0.0521
      2 C          63.9763   92.0432   10.9846 C.ar    1  UNL1        0.0601
      3 N          65.0406   93.0524   11.2988 N.ar    1  UNL1       -0.2541
      4 C          65.7742   92.9867   12.6055 C.ar    1  UNL1        0.0588
      5 C          66.8386   93.9959   12.9196 C.3     1  UNL1        0.0519
      6 C          65.4434   91.9119   13.5981 C.ar    1  UNL1        0.0368
      7 C          64.3791   90.9027   13.2839 C.ar    1  UNL1        0.0487
      8 C          63.6455   90.9684   11.9772 C.ar    1  UNL1        0.0267
      9 N          64.0483   89.8278   14.2766 N.pl3   1  UNL1       -0.3076
     10 C          63.1790   90.1400   15.4584 C.3     1  UNL1        0.0908
     11 C          62.8482   89.0651   16.4510 C.3     1  UNL1        0.0215
     12 C          63.3867   87.6780   16.2617 C.3     1  UNL1        0.0033
     13 C          63.6559   86.2239   16.5132 C.3     1  UNL1        0.0001
     14 C          62.6108   87.4852   17.5309 C.3     1  UNL1        0.0001
     15 C          64.2561   87.3658   15.0798 C.3     1  UNL1        0.0215
     16 C          64.5869   88.4407   14.0873 C.3     1  UNL1        0.0908
     17 C          62.5811   89.9591   11.6631 C.ar    1  UNL1        0.0025
     18 C          61.1337   90.3402   11.7620 C.ar    1  UNL1        0.0032
     19 C          60.0693   89.3311   11.4479 C.ar    1  UNL1        0.0369
     20 C          60.4524   87.9408   11.0349 C.ar    1  UNL1        0.1386
     21 C          61.8998   87.5597   10.9360 C.ar    1  UNL1        0.0369
     22 C          62.9642   88.5689   11.2502 C.ar    1  UNL1        0.0032
     23 O          59.3880   86.9316   10.7208 O.3     1  UNL1       -0.4751
     24 C          58.8547   86.8142    9.3237 C.3     1  UNL1        0.2101
     25 C          59.7054   87.2262    8.1591 C.3     1  UNL1        0.0736
     26 C          60.6984   86.2638    7.5780 C.ar    1  UNL1       -0.0183
     27 C          60.3335   85.4442    6.3759 C.ar    1  UNL1       -0.0018
     28 C          61.3265   84.4818    5.7948 C.ar    1  UNL1        0.0293
     29 C          62.6844   84.3389    6.4158 C.ar    1  UNL1        0.1401
     30 F          63.6774   83.3765    5.8347 F       1  UNL1       -0.2042
     31 C          63.0493   85.1585    7.6180 C.ar    1  UNL1        0.0293
     32 C          62.0563   86.1209    8.1991 C.ar    1  UNL1       -0.0018
     33 C          66.1770   91.8462   14.9048 C.3     1  UNL1        0.1756
     34 C          65.6074   92.5173   16.1193 C.2     1  UNL1        0.0816
     35 O          64.1490   92.3751   16.4402 O.co2   1  UNL1       -0.5464
     36 O          66.4961   93.3308   17.0129 O.co2   1  UNL1       -0.5464
     37 O          67.4803   91.1093   14.9971 O.3     1  UNL1       -0.3509
     38 C          68.7677   91.8235   14.7096 C.3     1  UNL1        0.0938
     39 C          68.6636   91.4300   13.2659 C.3     1  UNL1        0.0297
     40 C          68.8717   92.2169   16.1534 C.3     1  UNL1        0.0297
     41 C          70.0550   92.5376   14.4222 C.3     1  UNL1        0.0297
@<TRIPOS>UNITY_ATOM_ATTR
35 1
charge -1
@<TRIPOS>BOND
     1     1     2    1
     2     2     3   ar
     3     3     4   ar
     4     4     5    1
     5     4     6   ar
     6     6    33    1
     7    33    37    1
     8    37    38    1
     9    38    39    1
    10    38    40    1
    11    38    41    1
    12    33    34    1
    13    34    35   ar
    14    34    36   ar
    15     6     7   ar
    16     7     9    1
    17     9    10    1
    18    10    11    1
    19    11    12    1
    20    12    13    1
    21    12    14    1
    22    12    15    1
    23    15    16    1
    24     7     8   ar
    25     8    17    1
    26    17    18   ar
    27    18    19   ar
    28    19    20   ar
    29    20    23    1
    30    23    24    1
    31    24    25    1
    32    25    26    1
    33    26    27   ar
    34    27    28   ar
    35    28    29   ar
    36    29    30    1
    37    29    31   ar
    38    31    32   ar
    39    20    21   ar
    40    21    22   ar
    41     8     2   ar
    42    22    17   ar
    43    16     9    1
    44    32    26   ar
@<TRIPOS>MOLECULE
*****
 41 44 0 0 0
SMALL
GASTEIGER

@<TRIPOS>ATOM
      1 C          64.4301   88.3792   15.5009 C.3     1  UNL1        0.0521
      2 C          64.0230   87.0726   14.8866 C.ar    1  UNL1        0.0601
      3 N          64.0923   85.8104   15.6940 N.ar    1  UNL1       -0.2541
      4 C          63.6853   84.5039   15.0798 C.ar    1  UNL1        0.0588
      5 C          63.7546   83.2416   15.8872 C.3     1  UNL1        0.0519
      6 C          63.2089   84.4596   13.6581 C.ar    1  UNL1        0.0368
      7 C          63.1396   85.7218   12.8508 C.ar    1  UNL1        0.0487
      8 C          63.5466   87.0284   13.4650 C.ar    1  UNL1        0.0267
      9 N          62.6632   85.6776   11.4291 N.pl3   1  UNL1       -0.3076
     10 C          61.2642   86.1019   11.0933 C.3     1  UNL1        0.0908
     11 C          60.7878   86.0577    9.6716 C.3     1  UNL1        0.0215
     12 C          61.7104   85.5891    8.5857 C.3     1  UNL1        0.0033
     13 C          62.2071   85.2238    7.2183 C.3     1  UNL1        0.0001
     14 C          60.4839   85.8866    7.7751 C.3     1  UNL1        0.0001
     15 C          63.1095   85.1647    8.9215 C.3     1  UNL1        0.0215
     16 C          63.5858   85.2090   10.3432 C.3     1  UNL1        0.0908
     17 C          63.4773   88.2906   12.6575 C.ar    1  UNL1        0.0025
     18 C          63.9928   89.5772   13.2312 C.ar    1  UNL1        0.0032
     19 C          63.9235   90.8394   12.4238 C.ar    1  UNL1        0.0369
     20 C          63.3386   90.8152   11.0427 C.ar    1  UNL1        0.1386
     21 C          62.8231   89.5286   10.4690 C.ar    1  UNL1        0.0369
     22 C          62.8924   88.2663   11.2765 C.ar    1  UNL1        0.0032
     23 O          63.2693   92.0774   10.2353 O.3     1  UNL1       -0.4751
     24 C          64.3612   93.0998   10.3466 C.3     1  UNL1        0.2101
     25 C          65.7866   92.6605   10.5060 C.3     1  UNL1        0.0736
     26 C          66.4514   92.7437   11.8480 C.ar    1  UNL1       -0.0183
     27 C          66.0488   93.8133   12.8195 C.ar    1  UNL1       -0.0018
     28 C          66.7136   93.8965   14.1615 C.ar    1  UNL1        0.0293
     29 C          67.7810   92.9100   14.5321 C.ar    1  UNL1        0.1401
     30 F          68.4458   92.9932   15.8742 F       1  UNL1       -0.2042
     31 C          68.1837   91.8403   13.5607 C.ar    1  UNL1        0.0293
     32 C          67.5188   91.7571   12.2186 C.ar    1  UNL1       -0.0018
     33 C          62.8018   83.1531   13.0439 C.3     1  UNL1        0.1756
     34 C          62.4317   81.9946   13.9218 C.2     1  UNL1        0.0816
     35 O          63.4353   80.9156   14.2027 O.co2   1  UNL1       -0.5464
     36 O          61.0580   81.9149   14.5190 O.co2   1  UNL1       -0.5464
     37 O          62.7649   83.0050   11.5517 O.3     1  UNL1       -0.3509
     38 C          63.0936   81.6845   10.9206 C.3     1  UNL1        0.0938
     39 C          61.8683   81.0825   11.5422 C.3     1  UNL1        0.0297
     40 C          64.3188   82.2866   10.2991 C.3     1  UNL1        0.0297
     41 C          63.4222   80.3640   10.2896 C.3     1  UNL1        0.0297
@<TRIPOS>UNITY_ATOM_ATTR
35 1
charge -1
@<TRIPOS>BOND
     1     1     2    1
     2     2     3   ar
     3     3     4   ar
     4     4     5    1
     5     4     6   ar
     6     6    33    1
     7    33    37    1
     8    37    38    1
     9    38    39    1
    10    38    40    1
    11    38    41    1
    12    33    34    1
    13    34    35   ar
    14    34    36   ar
    15     6     7   ar
    16     7     9    1
    17     9    10    1
    18    10    11    1
    19    11    12    1
    20    12    13    1
    21    12    14    1
    22    12    15    1
    23    15    16    1
    24     7     8   ar
    25     8    17    1
    26    17    18   ar
    27    18    19   ar
    28    19    20   ar
    29    20    23    1
    30    23    24    1
    31    24    25    1
    32    25    26    1
    33    26    27   ar
    34    27    28   ar
    35    28    29   ar
    36    29    30    1
    37    29    31   ar
    38    31    32   ar
    39    20    21   ar
    40    21    22   ar
    41     8     2   ar
    42    22    17   ar
    43    16     9    1
    44    32    26   ar
