@<TRIPOS>MOLECULE
*****
 43 45 0 0 0
SMALL
GASTEIGER

@<TRIPOS>ATOM
      1 C          63.4095   86.9101   16.3710 C.3     1  UNL1        0.2120
      2 O          63.8359   86.7235   14.9451 O.3     1  UNL1       -0.3763
      3 H          64.6159   86.1478   14.9136 H       1  UNL1        0.2107
      4 C          62.9831   87.0968   17.7969 C.3     1  UNL1        0.4226
      5 F          62.5567   87.2834   19.2229 F       1  UNL1       -0.1675
      6 F          63.3362   88.5522   17.7120 F       1  UNL1       -0.1675
      7 F          62.6300   85.6414   17.8818 F       1  UNL1       -0.1675
      8 C          63.3891   88.3965   16.1704 C.3     1  UNL1        0.1269
      9 C          63.8025   90.4525   14.6369 C.2     1  UNL1        0.2502
     10 O          63.7398   91.3567   15.8322 O.2     1  UNL1       -0.2700
     11 N          63.6272   88.9725   14.8060 N.am    1  UNL1       -0.2982
     12 H          63.6683   88.3791   14.0215 H       1  UNL1        0.1498
     13 N          66.0424   92.6973   13.8665 N.pl3   1  UNL1       -0.3424
     14 C          65.0702   92.0604   12.9184 C.ar    1  UNL1        0.1327
     15 C          64.0406   91.0285   13.2725 C.ar    1  UNL1        0.1053
     16 C          63.2909   90.6739   12.0226 C.ar    1  UNL1        0.1278
     17 N          63.8570   91.4865   10.8961 N.ar    1  UNL1       -0.1622
     18 N          64.9567   92.3434   11.4497 N.ar    1  UNL1       -0.2163
     19 H          66.0397   92.4444   14.8179 H       1  UNL1        0.1437
     20 H          66.6834   93.3682   13.5373 H       1  UNL1        0.1437
     21 C          65.7957   93.3130   10.6713 C.ar    1  UNL1        0.0843
     22 C          67.0557   92.8472   10.0039 C.ar    1  UNL1        0.0215
     23 C          67.8947   93.8169    9.2255 C.ar    1  UNL1        0.0312
     24 C          67.4736   95.2523    9.1145 C.ar    1  UNL1        0.1402
     25 F          68.3127   96.2219    8.3361 F       1  UNL1       -0.2042
     26 C          66.2136   95.7181    9.7819 C.ar    1  UNL1        0.0312
     27 C          65.3747   94.7484   10.5603 C.ar    1  UNL1        0.0215
     28 C          63.4299   85.4237   16.5716 C.3     1  UNL1        0.1308
     29 N          63.6459   84.5118   15.4004 N.am    1  UNL1       -0.2706
     30 C          62.5029   84.1795   14.4876 C.2     1  UNL1        0.2536
     31 O          61.1438   84.7593   14.7461 O.2     1  UNL1       -0.2697
     32 C          62.7189   83.2676   13.3165 C.ar    1  UNL1        0.1083
     33 C          63.1544   83.8321   11.9968 C.ar    1  UNL1        0.1467
     34 F          63.3739   85.3085   11.8483 F       1  UNL1       -0.2039
     35 C          63.3705   82.9201   10.8255 C.ar    1  UNL1        0.0299
     36 C          63.1510   81.4437   10.9741 C.ar    1  UNL1        0.0046
     37 C          62.7154   80.8793   12.2939 C.ar    1  UNL1        0.0299
     38 C          62.4994   81.7912   13.4650 C.ar    1  UNL1        0.1467
     39 F          62.0639   81.2267   14.7847 F       1  UNL1       -0.2039
     40 C          65.0050   83.9320   15.1419 C.3     1  UNL1        0.1255
     41 C          66.0260   84.7244   14.3805 C.3     1  UNL1        0.1586
     42 O          66.8458   85.7646   15.0847 O.3     1  UNL1       -0.3802
     43 H          66.2684   86.4856   15.3805 H       1  UNL1        0.2105
@<TRIPOS>BOND
     1    13    14    1
     2    14    15   ar
     3    15     9    1
     4     9    10    2
     5     9    11   am
     6    11     8    1
     7     8     1    1
     8     1     2    1
     9     1    28    1
    10    28    29    1
    11    29    40    1
    12    40    41    1
    13    41    42    1
    14    29    30   am
    15    30    31    2
    16    30    32    1
    17    32    33   ar
    18    33    34    1
    19    33    35   ar
    20    35    36   ar
    21    36    37   ar
    22    37    38   ar
    23    38    39    1
    24     1     4    1
    25     4     5    1
    26     4     6    1
    27     4     7    1
    28    15    16   ar
    29    16    17   ar
    30    17    18   ar
    31    18    21    1
    32    21    22   ar
    33    22    23   ar
    34    23    24   ar
    35    24    25    1
    36    24    26   ar
    37    26    27   ar
    38    18    14   ar
    39    27    21   ar
    40    38    32   ar
    41    13    19    1
    42    13    20    1
    43    11    12    1
    44     2     3    1
    45    42    43    1
@<TRIPOS>MOLECULE
*****
 43 45 0 0 0
SMALL
GASTEIGER

@<TRIPOS>ATOM
      1 C          63.2398   86.9978   16.4963 C.3     1  UNL1        0.2120
      2 O          63.6081   86.8965   15.0458 O.3     1  UNL1       -0.3763
      3 H          64.4457   86.4153   14.9577 H       1  UNL1        0.2107
      4 C          62.8715   87.0990   17.9468 C.3     1  UNL1        0.4226
      5 F          62.5032   87.2004   19.3974 F       1  UNL1       -0.1675
      6 F          63.2898   88.5396   17.9524 F       1  UNL1       -0.1675
      7 F          62.4532   85.6586   17.9411 F       1  UNL1       -0.1675
      8 C          63.0401   88.4764   16.3424 C.3     1  UNL1        0.1269
      9 C          64.1167   90.7716   15.7739 C.2     1  UNL1        0.2502
     10 O          63.2156   91.4407   16.7691 O.2     1  UNL1       -0.2700
     11 N          64.0289   89.2894   15.5606 N.am    1  UNL1       -0.2982
     12 H          64.6203   88.8503   14.9074 H       1  UNL1        0.1498
     13 N          64.0986   91.2250   12.5423 N.pl3   1  UNL1       -0.3424
     14 C          65.0972   91.7930   13.5066 C.ar    1  UNL1        0.1327
     15 C          65.1055   91.5846   14.9921 C.ar    1  UNL1        0.1053
     16 C          66.2763   92.3319   15.5585 C.ar    1  UNL1        0.1278
     17 N          66.9915   93.0023   14.4231 N.ar    1  UNL1       -0.1622
     18 N          66.2628   92.6692   13.1550 N.ar    1  UNL1       -0.2163
     19 H          63.3644   90.6576   12.8711 H       1  UNL1        0.1437
     20 H          64.1775   91.4196   11.5804 H       1  UNL1        0.1437
     21 C          66.6345   93.1311   11.7772 C.ar    1  UNL1        0.0843
     22 C          67.4552   92.2470   10.8857 C.ar    1  UNL1        0.0215
     23 C          67.8268   92.7090    9.5078 C.ar    1  UNL1        0.0312
     24 C          67.3778   94.0550    9.0215 C.ar    1  UNL1        0.1402
     25 F          67.7495   94.5168    7.6436 F       1  UNL1       -0.2042
     26 C          66.5571   94.9391    9.9130 C.ar    1  UNL1        0.0312
     27 C          66.1854   94.4772   11.2908 C.ar    1  UNL1        0.0215
     28 C          63.4395   85.5191   16.6502 C.3     1  UNL1        0.1308
     29 N          63.6576   84.6617   15.4389 N.am    1  UNL1       -0.2706
     30 C          62.4947   84.2770   14.5730 C.2     1  UNL1        0.2536
     31 O          61.1137   84.7498   14.9184 O.2     1  UNL1       -0.2697
     32 C          62.7128   83.4196   13.3617 C.ar    1  UNL1        0.1083
     33 C          62.5052   81.9364   13.4455 C.ar    1  UNL1        0.1467
     34 F          62.0795   81.3107   14.7406 F       1  UNL1       -0.2039
     35 C          62.7233   81.0789   12.2342 C.ar    1  UNL1        0.0299
     36 C          63.1491   81.7047   10.9391 C.ar    1  UNL1        0.0046
     37 C          63.3567   83.1879   10.8554 C.ar    1  UNL1        0.0299
     38 C          63.1385   84.0453   12.0667 C.ar    1  UNL1        0.1467
     39 F          63.3461   85.5285   11.9828 F       1  UNL1       -0.2039
     40 C          65.0386   84.1889   15.0935 C.3     1  UNL1        0.1255
     41 C          66.0778   85.1728   14.6441 C.3     1  UNL1        0.1586
     42 O          67.5303   84.8007   14.6845 O.3     1  UNL1       -0.3802
     43 H          67.8079   84.6810   15.6062 H       1  UNL1        0.2105
@<TRIPOS>BOND
     1    13    14    1
     2    14    15   ar
     3    15     9    1
     4     9    10    2
     5     9    11   am
     6    11     8    1
     7     8     1    1
     8     1     2    1
     9     1    28    1
    10    28    29    1
    11    29    40    1
    12    40    41    1
    13    41    42    1
    14    29    30   am
    15    30    31    2
    16    30    32    1
    17    32    33   ar
    18    33    34    1
    19    33    35   ar
    20    35    36   ar
    21    36    37   ar
    22    37    38   ar
    23    38    39    1
    24     1     4    1
    25     4     5    1
    26     4     6    1
    27     4     7    1
    28    15    16   ar
    29    16    17   ar
    30    17    18   ar
    31    18    21    1
    32    21    22   ar
    33    22    23   ar
    34    23    24   ar
    35    24    25    1
    36    24    26   ar
    37    26    27   ar
    38    18    14   ar
    39    27    21   ar
    40    38    32   ar
    41    13    19    1
    42    13    20    1
    43    11    12    1
    44     2     3    1
    45    42    43    1
@<TRIPOS>MOLECULE
*****
 43 45 0 0 0
SMALL
GASTEIGER

@<TRIPOS>ATOM
      1 C          63.3957   87.0318   16.2811 C.3     1  UNL1        0.2120
      2 O          63.8729   87.1569   14.8645 O.3     1  UNL1       -0.3763
      3 H          64.6999   86.6616   14.7570 H       1  UNL1        0.2107
      4 C          62.9186   86.9067   17.6976 C.3     1  UNL1        0.4226
      5 F          62.4414   86.7815   19.1142 F       1  UNL1       -0.1675
      6 F          62.5976   85.4605   17.4617 F       1  UNL1       -0.1675
      7 F          63.2396   88.3528   17.9335 F       1  UNL1       -0.1675
      8 C          63.2532   88.5226   16.3648 C.3     1  UNL1        0.1269
      9 C          64.1873   90.8880   15.8332 C.2     1  UNL1        0.2502
     10 O          63.2772   91.4800   16.8683 O.2     1  UNL1       -0.2700
     11 N          64.1753   89.4094   15.5815 N.am    1  UNL1       -0.2982
     12 H          64.7726   89.0208   14.9021 H       1  UNL1        0.1498
     13 N          64.2049   91.2496   12.5900 N.pl3   1  UNL1       -0.3424
     14 C          65.1174   91.9409   13.5591 C.ar    1  UNL1        0.1327
     15 C          65.1094   91.7747   15.0499 C.ar    1  UNL1        0.1053
     16 C          66.1852   92.6509   15.6198 C.ar    1  UNL1        0.1278
     17 N          66.8583   93.3586   14.4813 N.ar    1  UNL1       -0.1622
     18 N          66.1983   92.9198   13.2078 N.ar    1  UNL1       -0.2163
     19 H          63.5229   90.6205   12.9191 H       1  UNL1        0.1437
     20 H          64.2880   91.4250   11.6248 H       1  UNL1        0.1437
     21 C          66.5564   93.3793   11.8255 C.ar    1  UNL1        0.0843
     22 C          66.1771   94.7577   11.3716 C.ar    1  UNL1        0.0215
     23 C          66.5351   95.2171    9.9893 C.ar    1  UNL1        0.0312
     24 C          67.2725   94.2981    9.0609 C.ar    1  UNL1        0.1402
     25 F          67.6305   94.7577    7.6787 F       1  UNL1       -0.2042
     26 C          67.6518   92.9197    9.5149 C.ar    1  UNL1        0.0312
     27 C          67.2937   92.4603   10.8971 C.ar    1  UNL1        0.0215
     28 C          63.5382   85.5409   16.1973 C.3     1  UNL1        0.1308
     29 N          63.2708   84.8335   14.9020 N.am    1  UNL1       -0.2706
     30 C          64.3860   84.6141   13.9230 C.2     1  UNL1        0.2536
     31 O          65.7686   85.1021   14.2395 O.2     1  UNL1       -0.2697
     32 C          64.1185   83.9067   12.6277 C.ar    1  UNL1        0.1083
     33 C          64.4830   82.4598   12.4741 C.ar    1  UNL1        0.1467
     34 F          65.1150   81.7203   13.6160 F       1  UNL1       -0.2039
     35 C          64.2156   81.7523   11.1787 C.ar    1  UNL1        0.0299
     36 C          63.5836   82.4918   10.0369 C.ar    1  UNL1        0.0046
     37 C          63.2190   83.9388   10.1905 C.ar    1  UNL1        0.0299
     38 C          63.4865   84.6462   11.4858 C.ar    1  UNL1        0.1467
     39 F          63.1220   86.0930   11.6394 F       1  UNL1       -0.2039
     40 C          61.8881   84.3454   14.5855 C.3     1  UNL1        0.1255
     41 C          61.5777   82.8793   14.6481 C.3     1  UNL1        0.1586
     42 O          62.5829   81.9235   15.2190 O.3     1  UNL1       -0.3802
     43 H          63.3666   81.8992   14.6480 H       1  UNL1        0.2105
@<TRIPOS>BOND
     1    13    14    1
     2    14    15   ar
     3    15     9    1
     4     9    10    2
     5     9    11   am
     6    11     8    1
     7     8     1    1
     8     1     2    1
     9     1    28    1
    10    28    29    1
    11    29    40    1
    12    40    41    1
    13    41    42    1
    14    29    30   am
    15    30    31    2
    16    30    32    1
    17    32    33   ar
    18    33    34    1
    19    33    35   ar
    20    35    36   ar
    21    36    37   ar
    22    37    38   ar
    23    38    39    1
    24     1     4    1
    25     4     5    1
    26     4     6    1
    27     4     7    1
    28    15    16   ar
    29    16    17   ar
    30    17    18   ar
    31    18    21    1
    32    21    22   ar
    33    22    23   ar
    34    23    24   ar
    35    24    25    1
    36    24    26   ar
    37    26    27   ar
    38    18    14   ar
    39    27    21   ar
    40    38    32   ar
    41    13    19    1
    42    13    20    1
    43    11    12    1
    44     2     3    1
    45    42    43    1
@<TRIPOS>MOLECULE
*****
 43 45 0 0 0
SMALL
GASTEIGER

@<TRIPOS>ATOM
      1 C          63.8952   90.7982   14.4825 C.3     1  UNL1        0.2120
      2 O          62.6506   90.3166   13.7977 O.3     1  UNL1       -0.3763
      3 H          61.9745   91.0114   13.8297 H       1  UNL1        0.2107
      4 C          65.1398   91.2797   15.1673 C.3     1  UNL1        0.4226
      5 F          66.3845   91.7613   15.8521 F       1  UNL1       -0.1675
      6 F          65.9769   90.5480   14.1603 F       1  UNL1       -0.1675
      7 F          64.3027   92.0114   16.1742 F       1  UNL1       -0.1675
      8 C          63.9265   89.5453   15.3066 C.3     1  UNL1        0.1269
      9 C          63.9279   86.9472   15.3110 C.2     1  UNL1        0.2502
     10 O          63.1103   86.9489   16.5686 O.2     1  UNL1       -0.2700
     11 N          64.3360   88.2454   14.6800 N.am    1  UNL1       -0.2982
     12 H          64.8727   88.2443   13.8547 H       1  UNL1        0.1498
     13 N          62.2164   85.2579   13.1050 N.pl3   1  UNL1       -0.3424
     14 C          63.5507   84.8709   13.6703 C.ar    1  UNL1        0.1327
     15 C          64.3375   85.6474   14.6844 C.ar    1  UNL1        0.1053
     16 C          65.6056   84.8958   14.9617 C.ar    1  UNL1        0.1278
     17 N          65.6027   83.6548   14.1192 N.ar    1  UNL1       -0.1622
     18 N          64.3327   83.6394   13.3211 N.ar    1  UNL1       -0.2163
     19 H          61.7802   86.0903   13.3983 H       1  UNL1        0.1437
     20 H          61.7769   84.6795   12.4405 H       1  UNL1        0.1437
     21 C          63.9176   82.5787   12.3450 C.ar    1  UNL1        0.0843
     22 C          63.1818   81.3634   12.8261 C.ar    1  UNL1        0.0215
     23 C          62.7666   80.3027   11.8501 C.ar    1  UNL1        0.0312
     24 C          63.0872   80.4574   10.3929 C.ar    1  UNL1        0.1402
     25 F          62.6720   79.3967    9.4170 F       1  UNL1       -0.2042
     26 C          63.8230   81.6728    9.9118 C.ar    1  UNL1        0.0312
     27 C          64.2382   82.7334   10.8879 C.ar    1  UNL1        0.0215
     28 C          63.8638   92.0511   13.6583 C.3     1  UNL1        0.1308
     29 N          64.7007   92.1540   12.4178 N.am    1  UNL1       -0.2706
     30 C          65.8027   93.1686   12.3385 C.2     1  UNL1        0.2536
     31 O          66.0677   94.0804   13.4997 O.2     1  UNL1       -0.2697
     32 C          66.6397   93.2715   11.0980 C.ar    1  UNL1        0.1083
     33 C          67.8084   92.3517   10.9035 C.ar    1  UNL1        0.1467
     34 F          68.1403   91.3290   11.9495 F       1  UNL1       -0.2039
     35 C          68.6455   92.4545    9.6629 C.ar    1  UNL1        0.0299
     36 C          68.3136   93.4771    8.6169 C.ar    1  UNL1        0.0046
     37 C          67.1448   94.3970    8.8115 C.ar    1  UNL1        0.0299
     38 C          66.3078   94.2941   10.0520 C.ar    1  UNL1        0.1467
     39 F          65.1391   95.2139   10.2465 F       1  UNL1       -0.2039
     40 C          64.4358   91.2422   11.2566 C.3     1  UNL1        0.1255
     41 C          63.1621   91.3734   10.4753 C.3     1  UNL1        0.1586
     42 O          61.8816   90.8239   11.0306 O.3     1  UNL1       -0.3802
     43 H          61.9407   89.8572   11.0835 H       1  UNL1        0.2105
@<TRIPOS>BOND
     1    13    14    1
     2    14    15   ar
     3    15     9    1
     4     9    10    2
     5     9    11   am
     6    11     8    1
     7     8     1    1
     8     1     2    1
     9     1    28    1
    10    28    29    1
    11    29    40    1
    12    40    41    1
    13    41    42    1
    14    29    30   am
    15    30    31    2
    16    30    32    1
    17    32    33   ar
    18    33    34    1
    19    33    35   ar
    20    35    36   ar
    21    36    37   ar
    22    37    38   ar
    23    38    39    1
    24     1     4    1
    25     4     5    1
    26     4     6    1
    27     4     7    1
    28    15    16   ar
    29    16    17   ar
    30    17    18   ar
    31    18    21    1
    32    21    22   ar
    33    22    23   ar
    34    23    24   ar
    35    24    25    1
    36    24    26   ar
    37    26    27   ar
    38    18    14   ar
    39    27    21   ar
    40    38    32   ar
    41    13    19    1
    42    13    20    1
    43    11    12    1
    44     2     3    1
    45    42    43    1
@<TRIPOS>MOLECULE
*****
 43 45 0 0 0
SMALL
GASTEIGER

@<TRIPOS>ATOM
      1 C          63.8864   90.7855   14.5463 C.3     1  UNL1        0.2120
      2 O          62.6376   90.2769   13.8893 O.3     1  UNL1       -0.3763
      3 H          61.9538   90.9643   13.9187 H       1  UNL1        0.2107
      4 C          65.1353   91.2942   15.2032 C.3     1  UNL1        0.4226
      5 F          66.3842   91.8029   15.8602 F       1  UNL1       -0.1675
      6 F          64.3044   92.0731   16.1795 F       1  UNL1       -0.1675
      7 F          65.9661   90.5153   14.2269 F       1  UNL1       -0.1675
      8 C          63.9449   89.5487   15.3928 C.3     1  UNL1        0.1269
      9 C          63.8921   86.9512   15.4105 C.2     1  UNL1        0.2502
     10 O          63.0576   86.9766   16.6567 O.2     1  UNL1       -0.2700
     11 N          64.3357   88.2372   14.7785 N.am    1  UNL1       -0.2982
     12 H          64.8834   88.2205   13.9606 H       1  UNL1        0.1498
     13 N          62.2519   85.3594   13.0812 N.pl3   1  UNL1       -0.3424
     14 C          63.5290   84.9081   13.7255 C.ar    1  UNL1        0.1327
     15 C          64.2830   85.6397   14.7962 C.ar    1  UNL1        0.1053
     16 C          65.4963   84.8297   15.1447 C.ar    1  UNL1        0.1278
     17 N          65.4923   83.5973   14.2895 N.ar    1  UNL1       -0.1622
     18 N          64.2765   83.6458   13.4124 N.ar    1  UNL1       -0.2163
     19 H          61.8351   86.2080   13.3559 H       1  UNL1        0.1437
     20 H          61.8305   84.8071   12.3837 H       1  UNL1        0.1437
     21 C          63.8780   82.6133   12.3999 C.ar    1  UNL1        0.0843
     22 C          64.1817   82.8311   10.9473 C.ar    1  UNL1        0.0215
     23 C          63.7832   81.7986    9.9348 C.ar    1  UNL1        0.0312
     24 C          63.0809   80.5483   10.3750 C.ar    1  UNL1        0.1402
     25 F          62.6825   79.5159    9.3624 F       1  UNL1       -0.2042
     26 C          62.7772   80.3305   11.8277 C.ar    1  UNL1        0.0312
     27 C          63.1757   81.3630   12.8401 C.ar    1  UNL1        0.0215
     28 C          63.8279   92.0225   13.6997 C.3     1  UNL1        0.1308
     29 N          64.6704   92.1254   12.4629 N.am    1  UNL1       -0.2706
     30 C          65.7994   93.1112   12.4043 C.2     1  UNL1        0.2536
     31 O          66.0860   93.9942   13.5826 O.2     1  UNL1       -0.2697
     32 C          66.6419   93.2141   11.1676 C.ar    1  UNL1        0.1083
     33 C          66.3124   94.2343   10.1185 C.ar    1  UNL1        0.1467
     34 F          65.1405   95.1516   10.3061 F       1  UNL1       -0.2039
     35 C          67.1549   94.3372    8.8816 C.ar    1  UNL1        0.0299
     36 C          68.3268   93.4199    8.6939 C.ar    1  UNL1        0.0046
     37 C          68.6562   92.3997    9.7431 C.ar    1  UNL1        0.0299
     38 C          67.8138   92.2968   10.9799 C.ar    1  UNL1        0.1467
     39 F          68.1433   91.2767   12.0290 F       1  UNL1       -0.2039
     40 C          64.3838   91.2424   11.2846 C.3     1  UNL1        0.1255
     41 C          63.0713   91.3521   10.5669 C.3     1  UNL1        0.1586
     42 O          61.8100   90.8918   11.2356 O.3     1  UNL1       -0.3802
     43 H          61.8446   89.9311   11.3648 H       1  UNL1        0.2105
@<TRIPOS>BOND
     1    13    14    1
     2    14    15   ar
     3    15     9    1
     4     9    10    2
     5     9    11   am
     6    11     8    1
     7     8     1    1
     8     1     2    1
     9     1    28    1
    10    28    29    1
    11    29    40    1
    12    40    41    1
    13    41    42    1
    14    29    30   am
    15    30    31    2
    16    30    32    1
    17    32    33   ar
    18    33    34    1
    19    33    35   ar
    20    35    36   ar
    21    36    37   ar
    22    37    38   ar
    23    38    39    1
    24     1     4    1
    25     4     5    1
    26     4     6    1
    27     4     7    1
    28    15    16   ar
    29    16    17   ar
    30    17    18   ar
    31    18    21    1
    32    21    22   ar
    33    22    23   ar
    34    23    24   ar
    35    24    25    1
    36    24    26   ar
    37    26    27   ar
    38    18    14   ar
    39    27    21   ar
    40    38    32   ar
    41    13    19    1
    42    13    20    1
    43    11    12    1
    44     2     3    1
    45    42    43    1
@<TRIPOS>MOLECULE
*****
 43 45 0 0 0
SMALL
GASTEIGER

@<TRIPOS>ATOM
      1 C          60.9971   87.8773    9.1532 C.3     1  UNL1        0.2120
      2 O          62.3228   87.9168    9.8538 O.3     1  UNL1       -0.3763
      3 H          62.3385   87.2459   10.5542 H       1  UNL1        0.2107
      4 C          59.6714   87.8377    8.4525 C.3     1  UNL1        0.4226
      5 F          58.3456   87.7982    7.7518 F       1  UNL1       -0.1675
      6 F          59.7684   89.3106    8.1858 F       1  UNL1       -0.1675
      7 F          59.5744   86.3648    8.7192 F       1  UNL1       -0.1675
      8 C          60.8541   89.3587    9.3400 C.3     1  UNL1        0.1269
      9 C          62.4246   90.3535   11.1549 C.2     1  UNL1        0.2502
     10 O          61.6066   89.6929   12.2248 O.2     1  UNL1       -0.2700
     11 N          62.0483   90.1863    9.7126 N.am    1  UNL1       -0.2982
     12 H          62.5852   90.6199    9.0104 H       1  UNL1        0.1498
     13 N          64.2168   90.0254   13.8623 N.pl3   1  UNL1       -0.3424
     14 C          64.4426   91.0303   12.7719 C.ar    1  UNL1        0.1327
     15 C          63.6188   91.1812   11.5274 C.ar    1  UNL1        0.1053
     16 C          64.1989   92.3050   10.7210 C.ar    1  UNL1        0.1278
     17 N          65.3813   92.8488   11.4669 N.ar    1  UNL1       -0.1622
     18 N          65.5318   92.0610   12.7345 N.ar    1  UNL1       -0.2163
     19 H          63.4707   89.3865   13.7961 H       1  UNL1        0.1437
     20 H          64.8147   90.0046   14.6441 H       1  UNL1        0.1437
     21 C          66.5865   92.2675   13.7809 C.ar    1  UNL1        0.0843
     22 C          68.0198   91.9485   13.4744 C.ar    1  UNL1        0.0215
     23 C          69.0744   92.1550   14.5209 C.ar    1  UNL1        0.0312
     24 C          68.6958   92.6806   15.8738 C.ar    1  UNL1        0.1402
     25 F          69.7505   92.8871   16.9202 F       1  UNL1       -0.2042
     26 C          67.2625   92.9996   16.1804 C.ar    1  UNL1        0.0312
     27 C          66.2079   92.7930   15.1339 C.ar    1  UNL1        0.0215
     28 C          61.1401   86.3958    8.9663 C.3     1  UNL1        0.1308
     29 N          62.0480   85.6106    9.8658 N.am    1  UNL1       -0.2706
     30 C          61.8780   85.6863   11.3543 C.2     1  UNL1        0.2536
     31 O          60.8000   86.5472   11.9432 O.2     1  UNL1       -0.2697
     32 C          62.7860   84.9011   12.2538 C.ar    1  UNL1        0.1083
     33 C          63.7174   85.6154   13.1876 C.ar    1  UNL1        0.1467
     34 F          63.7410   87.1148   13.2220 F       1  UNL1       -0.2039
     35 C          64.6254   84.8302   14.0872 C.ar    1  UNL1        0.0299
     36 C          64.6019   83.3308   14.0528 C.ar    1  UNL1        0.0046
     37 C          63.6703   82.6165   13.1189 C.ar    1  UNL1        0.0299
     38 C          62.7624   83.4017   12.2194 C.ar    1  UNL1        0.1467
     39 F          61.8309   82.6875   11.2855 F       1  UNL1       -0.2039
     40 C          63.1260   84.7497    9.2769 C.3     1  UNL1        0.1255
     41 C          63.5053   84.9049    7.8340 C.3     1  UNL1        0.1586
     42 O          62.5307   84.5284    6.7577 O.3     1  UNL1       -0.3802
     43 H          62.3753   83.5713    6.7826 H       1  UNL1        0.2105
@<TRIPOS>BOND
     1    13    14    1
     2    14    15   ar
     3    15     9    1
     4     9    10    2
     5     9    11   am
     6    11     8    1
     7     8     1    1
     8     1     2    1
     9     1    28    1
    10    28    29    1
    11    29    40    1
    12    40    41    1
    13    41    42    1
    14    29    30   am
    15    30    31    2
    16    30    32    1
    17    32    33   ar
    18    33    34    1
    19    33    35   ar
    20    35    36   ar
    21    36    37   ar
    22    37    38   ar
    23    38    39    1
    24     1     4    1
    25     4     5    1
    26     4     6    1
    27     4     7    1
    28    15    16   ar
    29    16    17   ar
    30    17    18   ar
    31    18    21    1
    32    21    22   ar
    33    22    23   ar
    34    23    24   ar
    35    24    25    1
    36    24    26   ar
    37    26    27   ar
    38    18    14   ar
    39    27    21   ar
    40    38    32   ar
    41    13    19    1
    42    13    20    1
    43    11    12    1
    44     2     3    1
    45    42    43    1
@<TRIPOS>MOLECULE
*****
 43 45 0 0 0
SMALL
GASTEIGER

@<TRIPOS>ATOM
      1 C          63.6911   86.9197   15.8420 C.3     1  UNL1        0.2120
      2 O          64.4912   87.0464   14.5795 O.3     1  UNL1       -0.3763
      3 H          65.3431   86.5958   14.6901 H       1  UNL1        0.2107
      4 C          62.8910   86.7931   17.1044 C.3     1  UNL1        0.4226
      5 F          62.0908   86.6665   18.3668 F       1  UNL1       -0.1675
      6 F          62.6517   88.2739   17.1012 F       1  UNL1       -0.1675
      7 F          63.1303   85.3123   17.1075 F       1  UNL1       -0.1675
      8 C          63.4590   88.4016   15.8435 C.3     1  UNL1        0.1269
      9 C          64.3905   90.7835   15.3864 C.2     1  UNL1        0.2502
     10 O          63.4367   91.3502   16.3960 O.2     1  UNL1       -0.2700
     11 N          64.4016   89.3092   15.1102 N.am    1  UNL1       -0.2982
     12 H          65.0275   88.9372   14.4475 H       1  UNL1        0.1498
     13 N          64.2357   91.5555   12.2194 N.pl3   1  UNL1       -0.3424
     14 C          65.2619   92.0459   13.1973 C.ar    1  UNL1        0.1327
     15 C          65.3331   91.6911   14.6530 C.ar    1  UNL1        0.1053
     16 C          66.5123   92.4032   15.2466 C.ar    1  UNL1        0.1278
     17 N          67.1700   93.1981   14.1578 N.ar    1  UNL1       -0.1622
     18 N          66.3972   92.9773   12.8912 N.ar    1  UNL1       -0.2163
     19 H          63.5252   90.9427   12.5174 H       1  UNL1        0.1437
     20 H          64.2728   91.8464   11.2796 H       1  UNL1        0.1437
     21 C          66.7055   93.5818   11.5535 C.ar    1  UNL1        0.0843
     22 C          66.3105   94.9991   11.2620 C.ar    1  UNL1        0.0215
     23 C          66.6189   95.6036    9.9242 C.ar    1  UNL1        0.0312
     24 C          67.3222   94.7907    8.8780 C.ar    1  UNL1        0.1402
     25 F          67.6305   95.3953    7.5403 F       1  UNL1       -0.2042
     26 C          67.7172   93.3733    9.1695 C.ar    1  UNL1        0.0312
     27 C          67.4089   92.7689   10.5073 C.ar    1  UNL1        0.0215
     28 C          63.9233   85.4377   15.8404 C.3     1  UNL1        0.1308
     29 N          63.5015   84.6138   14.6601 N.am    1  UNL1       -0.2706
     30 C          64.1205   83.2677   14.4254 C.2     1  UNL1        0.2536
     31 O          65.1614   82.7457   15.3710 O.2     1  UNL1       -0.2697
     32 C          63.6987   82.4438   13.2451 C.ar    1  UNL1        0.1083
     33 C          64.3077   82.6966   11.8978 C.ar    1  UNL1        0.1467
     34 F          65.3386   83.7734   11.7309 F       1  UNL1       -0.2039
     35 C          63.8859   81.8726   10.7175 C.ar    1  UNL1        0.0299
     36 C          62.8551   80.7958   10.8844 C.ar    1  UNL1        0.0046
     37 C          62.2461   80.5430   12.2318 C.ar    1  UNL1        0.0299
     38 C          62.6679   81.3670   13.4120 C.ar    1  UNL1        0.1467
     39 F          62.0589   81.1141   14.7593 F       1  UNL1       -0.2039
     40 C          62.4607   85.1358   13.7145 C.3     1  UNL1        0.1255
     41 C          62.8732   85.7496   12.4095 C.3     1  UNL1        0.1586
     42 O          62.9867   87.2401   12.2844 O.3     1  UNL1       -0.3802
     43 H          62.1085   87.6405   12.3817 H       1  UNL1        0.2105
@<TRIPOS>BOND
     1    13    14    1
     2    14    15   ar
     3    15     9    1
     4     9    10    2
     5     9    11   am
     6    11     8    1
     7     8     1    1
     8     1     2    1
     9     1    28    1
    10    28    29    1
    11    29    40    1
    12    40    41    1
    13    41    42    1
    14    29    30   am
    15    30    31    2
    16    30    32    1
    17    32    33   ar
    18    33    34    1
    19    33    35   ar
    20    35    36   ar
    21    36    37   ar
    22    37    38   ar
    23    38    39    1
    24     1     4    1
    25     4     5    1
    26     4     6    1
    27     4     7    1
    28    15    16   ar
    29    16    17   ar
    30    17    18   ar
    31    18    21    1
    32    21    22   ar
    33    22    23   ar
    34    23    24   ar
    35    24    25    1
    36    24    26   ar
    37    26    27   ar
    38    18    14   ar
    39    27    21   ar
    40    38    32   ar
    41    13    19    1
    42    13    20    1
    43    11    12    1
    44     2     3    1
    45    42    43    1
@<TRIPOS>MOLECULE
*****
 43 45 0 0 0
SMALL
GASTEIGER

@<TRIPOS>ATOM
      1 C          61.0015   87.8740    9.1592 C.3     1  UNL1        0.2120
      2 O          62.3279   87.9136    9.8585 O.3     1  UNL1       -0.3763
      3 H          62.3394   87.2521   10.5678 H       1  UNL1        0.2107
      4 C          59.6751   87.8345    8.4600 C.3     1  UNL1        0.4226
      5 F          58.3486   87.7948    7.7607 F       1  UNL1       -0.1675
      6 F          59.5680   86.3659    8.7464 F       1  UNL1       -0.1675
      7 F          59.7822   89.3029    8.1736 F       1  UNL1       -0.1675
      8 C          60.8692   89.3588    9.3262 C.3     1  UNL1        0.1269
      9 C          62.4313   90.3570   11.1465 C.2     1  UNL1        0.2502
     10 O          61.5995   89.7110   12.2146 O.2     1  UNL1       -0.2700
     11 N          62.0662   90.1809    9.7023 N.am    1  UNL1       -0.2982
     12 H          62.6121   90.6048    9.0013 H       1  UNL1        0.1498
     13 N          64.2027   90.0326   13.8679 N.pl3   1  UNL1       -0.3424
     14 C          64.4425   91.0299   12.7736 C.ar    1  UNL1        0.1327
     15 C          63.6283   91.1790   11.5226 C.ar    1  UNL1        0.1053
     16 C          64.2212   92.2945   10.7139 C.ar    1  UNL1        0.1278
     17 N          65.4019   92.8349   11.4649 N.ar    1  UNL1       -0.1622
     18 N          65.5386   92.0533   12.7379 N.ar    1  UNL1       -0.2163
     19 H          63.4530   89.3982   13.8002 H       1  UNL1        0.1437
     20 H          64.7951   90.0124   14.6540 H       1  UNL1        0.1437
     21 C          66.5874   92.2589   13.7904 C.ar    1  UNL1        0.0843
     22 C          68.0227   91.9428   13.4908 C.ar    1  UNL1        0.0215
     23 C          69.0715   92.1484   14.5433 C.ar    1  UNL1        0.0312
     24 C          68.6849   92.6702   15.8955 C.ar    1  UNL1        0.1402
     25 F          69.7337   92.8758   16.9480 F       1  UNL1       -0.2042
     26 C          67.2495   92.9863   16.1951 C.ar    1  UNL1        0.0312
     27 C          66.2008   92.7807   15.1426 C.ar    1  UNL1        0.0215
     28 C          61.1339   86.3892    8.9923 C.3     1  UNL1        0.1308
     29 N          62.0402   85.6104    9.8989 N.am    1  UNL1       -0.2706
     30 C          61.8643   85.6926   11.3864 C.2     1  UNL1        0.2536
     31 O          60.7820   86.5536   11.9671 O.2     1  UNL1       -0.2697
     32 C          62.7706   84.9138   12.2930 C.ar    1  UNL1        0.1083
     33 C          62.7381   83.4143   12.2781 C.ar    1  UNL1        0.1467
     34 F          61.7992   82.6935   11.3567 F       1  UNL1       -0.2039
     35 C          63.6445   82.6354   13.1848 C.ar    1  UNL1        0.0299
     36 C          64.5834   83.3561   14.1062 C.ar    1  UNL1        0.0046
     37 C          64.6159   84.8557   14.1210 C.ar    1  UNL1        0.0299
     38 C          63.7095   85.6345   13.2144 C.ar    1  UNL1        0.1467
     39 F          63.7421   87.1341   13.2292 F       1  UNL1       -0.2039
     40 C          63.1225   84.7494    9.3182 C.3     1  UNL1        0.1255
     41 C          63.4949   84.8865    7.8716 C.3     1  UNL1        0.1586
     42 O          62.5048   84.5239    6.8047 O.3     1  UNL1       -0.3802
     43 H          62.3289   83.5705    6.8374 H       1  UNL1        0.2105
@<TRIPOS>BOND
     1    13    14    1
     2    14    15   ar
     3    15     9    1
     4     9    10    2
     5     9    11   am
     6    11     8    1
     7     8     1    1
     8     1     2    1
     9     1    28    1
    10    28    29    1
    11    29    40    1
    12    40    41    1
    13    41    42    1
    14    29    30   am
    15    30    31    2
    16    30    32    1
    17    32    33   ar
    18    33    34    1
    19    33    35   ar
    20    35    36   ar
    21    36    37   ar
    22    37    38   ar
    23    38    39    1
    24     1     4    1
    25     4     5    1
    26     4     6    1
    27     4     7    1
    28    15    16   ar
    29    16    17   ar
    30    17    18   ar
    31    18    21    1
    32    21    22   ar
    33    22    23   ar
    34    23    24   ar
    35    24    25    1
    36    24    26   ar
    37    26    27   ar
    38    18    14   ar
    39    27    21   ar
    40    38    32   ar
    41    13    19    1
    42    13    20    1
    43    11    12    1
    44     2     3    1
    45    42    43    1
@<TRIPOS>MOLECULE
*****
 43 45 0 0 0
SMALL
GASTEIGER

@<TRIPOS>ATOM
      1 C          64.8821   91.0030   14.6892 C.3     1  UNL1        0.2120
      2 O          65.5463   90.4807   13.4499 O.3     1  UNL1       -0.3763
      3 H          65.7520   91.2204   12.8570 H       1  UNL1        0.2107
      4 C          64.2179   91.5254   15.9285 C.3     1  UNL1        0.4226
      5 F          63.5537   92.0478   17.1679 F       1  UNL1       -0.1675
      6 F          65.4328   92.3515   16.2314 F       1  UNL1       -0.1675
      7 F          63.0031   90.6994   15.6256 F       1  UNL1       -0.1675
      8 C          63.7770   90.0034   14.5182 C.3     1  UNL1        0.1269
      9 C          63.8789   87.4649   15.0618 C.2     1  UNL1        0.2502
     10 O          63.3449   87.7379   16.4368 O.2     1  UNL1       -0.2700
     11 N          64.0949   88.5976   14.1026 N.am    1  UNL1       -0.2982
     12 H          64.4453   88.4184   13.2002 H       1  UNL1        0.1498
     13 N          62.5013   85.8369   12.5917 N.pl3   1  UNL1       -0.3424
     14 C          63.5635   85.3108   13.5107 C.ar    1  UNL1        0.1327
     15 C          64.1968   86.0591   14.6462 C.ar    1  UNL1        0.1053
     16 C          65.2038   85.1548   15.2929 C.ar    1  UNL1        0.1278
     17 N          65.1929   83.8476   14.5573 N.ar    1  UNL1       -0.1622
     18 N          64.1792   83.9440   13.4559 N.ar    1  UNL1       -0.2163
     19 H          62.1588   86.7525   12.7083 H       1  UNL1        0.1437
     20 H          62.1465   85.2665   11.8720 H       1  UNL1        0.1437
     21 C          63.8405   82.8634   12.4722 C.ar    1  UNL1        0.0843
     22 C          64.2463   83.0035   11.0350 C.ar    1  UNL1        0.0215
     23 C          63.9077   81.9229   10.0513 C.ar    1  UNL1        0.0312
     24 C          63.1632   80.7022   10.5049 C.ar    1  UNL1        0.1402
     25 F          62.8246   79.6217    9.5211 F       1  UNL1       -0.2042
     26 C          62.7574   80.5621   11.9421 C.ar    1  UNL1        0.0312
     27 C          63.0961   81.6427   12.9258 C.ar    1  UNL1        0.0215
     28 C          65.9874   92.0028   14.8601 C.3     1  UNL1        0.1308
     29 N          66.7379   92.5032   13.6617 N.am    1  UNL1       -0.2706
     30 C          65.9957   92.8666   12.4098 C.2     1  UNL1        0.2536
     31 O          64.5029   92.7294   12.3564 O.2     1  UNL1       -0.2697
     32 C          66.7462   93.3671   11.2114 C.ar    1  UNL1        0.1083
     33 C          66.5039   94.7567   10.7013 C.ar    1  UNL1        0.1467
     34 F          65.5110   95.6458   11.3896 F       1  UNL1       -0.2039
     35 C          67.2545   95.2572    9.5029 C.ar    1  UNL1        0.0299
     36 C          68.2473   94.3681    8.8146 C.ar    1  UNL1        0.0046
     37 C          68.4896   92.9784    9.3248 C.ar    1  UNL1        0.0299
     38 C          67.7391   92.4780   10.5232 C.ar    1  UNL1        0.1467
     39 F          67.9814   91.0884   11.0333 F       1  UNL1       -0.2039
     40 C          68.2307   92.6404   13.7151 C.3     1  UNL1        0.1255
     41 C          68.9223   92.8002   15.0365 C.3     1  UNL1        0.1586
     42 O          68.5495   93.9332   15.9461 O.3     1  UNL1       -0.3802
     43 H          68.7952   94.7749   15.5315 H       1  UNL1        0.2105
@<TRIPOS>BOND
     1    13    14    1
     2    14    15   ar
     3    15     9    1
     4     9    10    2
     5     9    11   am
     6    11     8    1
     7     8     1    1
     8     1     2    1
     9     1    28    1
    10    28    29    1
    11    29    40    1
    12    40    41    1
    13    41    42    1
    14    29    30   am
    15    30    31    2
    16    30    32    1
    17    32    33   ar
    18    33    34    1
    19    33    35   ar
    20    35    36   ar
    21    36    37   ar
    22    37    38   ar
    23    38    39    1
    24     1     4    1
    25     4     5    1
    26     4     6    1
    27     4     7    1
    28    15    16   ar
    29    16    17   ar
    30    17    18   ar
    31    18    21    1
    32    21    22   ar
    33    22    23   ar
    34    23    24   ar
    35    24    25    1
    36    24    26   ar
    37    26    27   ar
    38    18    14   ar
    39    27    21   ar
    40    38    32   ar
    41    13    19    1
    42    13    20    1
    43    11    12    1
    44     2     3    1
    45    42    43    1
