@<TRIPOS>MOLECULE
*****
 27 29 0 0 0
SMALL
GASTEIGER

@<TRIPOS>ATOM
      1 C          64.2566   86.0355   15.5356 C.ar    1  UNL1        0.1473
      2 C          63.4204   86.0862   16.7799 C.ar    1  UNL1        0.0376
      3 C          62.8430   87.3910   17.2428 C.ar    1  UNL1        0.0033
      4 C          63.1019   88.6450   16.4616 C.ar    1  UNL1        0.0047
      5 C          63.9382   88.5943   15.2173 C.ar    1  UNL1        0.0566
      6 C          64.5155   87.2896   14.7543 C.ar    1  UNL1        0.0421
      7 C          64.1971   89.8483   14.4361 C.2     1  UNL1        0.2493
      8 O          64.9642   90.9760   15.0604 O.2     1  UNL1       -0.2699
      9 N          63.6888   89.9747   13.0304 N.am    1  UNL1       -0.2706
     10 C          63.8693   91.1614   12.1309 C.3     1  UNL1        0.1258
     11 C          63.2029   90.8566   10.8221 C.3     1  UNL1        0.1644
     12 O          63.1399   91.7671    9.6317 O.3     1  UNL1       -0.3799
     13 C          62.6104   89.4815   10.9127 C.3     1  UNL1        0.2089
     14 F          61.8510   88.7754    9.8289 F       1  UNL1       -0.2328
     15 C          62.9108   88.9364   12.2775 C.3     1  UNL1        0.1315
     16 H          62.6519   91.3303    8.9161 H       1  UNL1        0.2105
     17 O          64.8339   84.7308   15.0726 O.3     1  UNL1       -0.4361
     18 C          63.2998   82.4044   12.2470 C.ar    1  UNL1       -0.0004
     19 C          62.2082   81.7142   13.0098 C.ar    1  UNL1        0.0180
     20 C          61.9918   82.0295   14.4602 C.ar    1  UNL1        0.1018
     21 N          62.8670   83.0350   15.1478 N.ar    1  UNL1       -0.2098
     22 C          63.9586   83.7252   14.3850 C.ar    1  UNL1        0.2294
     23 C          64.1750   83.4099   12.9346 C.ar    1  UNL1        0.0552
     24 N          64.6870   82.6786   10.0674 N.3     1  UNL1       -0.3175
     25 C          63.5162   82.0891   10.7965 C.3     1  UNL1        0.0924
     26 H          64.6792   82.3606    9.0983 H       1  UNL1        0.1192
     27 H          65.5527   82.3797   10.5164 H       1  UNL1        0.1192
@<TRIPOS>BOND
     1    24    25    1
     2    25    18    1
     3    18    19   ar
     4    19    20   ar
     5    20    21   ar
     6    21    22   ar
     7    22    17    1
     8    17     1    1
     9     1     2   ar
    10     2     3   ar
    11     3     4   ar
    12     4     5   ar
    13     5     7    1
    14     7     8    2
    15     7     9   am
    16     9    10    1
    17    10    11    1
    18    11    12    1
    19    11    13    1
    20    13    14    1
    21    13    15    1
    22     5     6   ar
    23    22    23   ar
    24    23    18   ar
    25     6     1   ar
    26    15     9    1
    27    24    26    1
    28    24    27    1
    29    12    16    1
@<TRIPOS>MOLECULE
*****
 27 29 0 0 0
SMALL
GASTEIGER

@<TRIPOS>ATOM
      1 C          63.5346   90.5737   13.4489 C.ar    1  UNL1        0.1473
      2 C          64.5821   91.3643   12.7224 C.ar    1  UNL1        0.0376
      3 C          64.4251   91.6499   11.2582 C.ar    1  UNL1        0.0033
      4 C          63.2207   91.1449   10.5205 C.ar    1  UNL1        0.0047
      5 C          62.1732   90.3543   11.2469 C.ar    1  UNL1        0.0566
      6 C          62.3301   90.0687   12.7110 C.ar    1  UNL1        0.0421
      7 C          60.9688   89.8493   10.5092 C.2     1  UNL1        0.2493
      8 O          59.6991   90.6480   10.5104 O.2     1  UNL1       -0.2699
      9 N          61.0340   88.5456    9.7702 N.am    1  UNL1       -0.2706
     10 C          59.9167   87.9165    8.9918 C.3     1  UNL1        0.1258
     11 C          60.4201   86.6242    8.4204 C.3     1  UNL1        0.1644
     12 O          59.6333   85.6691    7.5726 O.3     1  UNL1       -0.3799
     13 C          61.8486   86.4546    8.8456 C.3     1  UNL1        0.2089
     14 F          62.7410   85.3002    8.4977 F       1  UNL1       -0.2328
     15 C          62.2279   87.6421    9.6798 C.3     1  UNL1        0.1315
     16 H          60.1916   84.9124    7.3347 H       1  UNL1        0.2105
     17 O          63.6915   90.2880   14.9130 O.3     1  UNL1       -0.4361
     18 C          64.3248   86.3764   15.1334 C.ar    1  UNL1       -0.0004
     19 C          63.5943   86.0420   16.4001 C.ar    1  UNL1        0.0180
     20 C          62.8963   87.1228   17.1711 C.ar    1  UNL1        0.1018
     21 N          62.9287   88.5382   16.6754 N.ar    1  UNL1       -0.2098
     22 C          63.6591   88.8726   15.4087 C.ar    1  UNL1        0.2294
     23 C          64.3572   87.7918   14.6377 C.ar    1  UNL1        0.0552
     24 N          66.4767   85.0194   14.6068 N.3     1  UNL1       -0.3175
     25 C          65.0228   85.2956   14.3624 C.3     1  UNL1        0.0924
     26 H          66.7849   84.2589   14.0009 H       1  UNL1        0.1192
     27 H          66.6131   84.7537   15.5821 H       1  UNL1        0.1192
@<TRIPOS>BOND
     1    24    25    1
     2    25    18    1
     3    18    19   ar
     4    19    20   ar
     5    20    21   ar
     6    21    22   ar
     7    22    17    1
     8    17     1    1
     9     1     2   ar
    10     2     3   ar
    11     3     4   ar
    12     4     5   ar
    13     5     7    1
    14     7     8    2
    15     7     9   am
    16     9    10    1
    17    10    11    1
    18    11    12    1
    19    11    13    1
    20    13    14    1
    21    13    15    1
    22     5     6   ar
    23    22    23   ar
    24    23    18   ar
    25     6     1   ar
    26    15     9    1
    27    24    26    1
    28    24    27    1
    29    12    16    1
@<TRIPOS>MOLECULE
*****
 27 29 0 0 0
SMALL
GASTEIGER

@<TRIPOS>ATOM
      1 C          63.8826   84.1068   14.1148 C.ar    1  UNL1        0.1473
      2 C          63.3745   82.7153   14.3507 C.ar    1  UNL1        0.0376
      3 C          62.6844   81.9715   13.2458 C.ar    1  UNL1        0.0033
      4 C          62.5024   82.6192   11.9052 C.ar    1  UNL1        0.0047
      5 C          63.0105   84.0106   11.6693 C.ar    1  UNL1        0.0566
      6 C          63.7005   84.7545   12.7740 C.ar    1  UNL1        0.0421
      7 C          62.8284   84.6583   10.3287 C.2     1  UNL1        0.2493
      8 O          63.5461   84.1141    9.1292 O.2     1  UNL1       -0.2699
      9 N          61.9288   85.8503   10.1875 N.am    1  UNL1       -0.2706
     10 C          61.6501   86.5992    8.9181 C.3     1  UNL1        0.1258
     11 C          60.6990   87.7143    9.2370 C.3     1  UNL1        0.1644
     12 O          60.1529   88.7138    8.2608 O.3     1  UNL1       -0.3799
     13 C          60.3897   87.6546   10.7036 C.3     1  UNL1        0.2089
     14 F          59.4802   88.5838   11.4514 F       1  UNL1       -0.2328
     15 C          61.1498   86.5026   11.2910 C.3     1  UNL1        0.1315
     16 H          59.5603   89.3269    8.7231 H       1  UNL1        0.2105
     17 O          64.5726   84.8507   15.2195 O.3     1  UNL1       -0.4361
     18 C          63.9783   88.7742   15.1683 C.ar    1  UNL1       -0.0004
     19 C          63.1469   88.9511   16.4041 C.ar    1  UNL1        0.0180
     20 C          62.7907   87.7612   17.2451 C.ar    1  UNL1        0.1018
     21 N          63.2659   86.3944   16.8503 N.ar    1  UNL1       -0.2098
     22 C          64.0973   86.2175   15.6144 C.ar    1  UNL1        0.2294
     23 C          64.4535   87.4074   14.7734 C.ar    1  UNL1        0.0552
     24 N          63.5104   91.2147   14.4099 N.3     1  UNL1       -0.3175
     25 C          64.3345   89.9641   14.3273 C.3     1  UNL1        0.0924
     26 H          63.8924   91.9161   13.7755 H       1  UNL1        0.1192
     27 H          63.5308   91.5728   15.3648 H       1  UNL1        0.1192
@<TRIPOS>BOND
     1    24    25    1
     2    25    18    1
     3    18    19   ar
     4    19    20   ar
     5    20    21   ar
     6    21    22   ar
     7    22    17    1
     8    17     1    1
     9     1     2   ar
    10     2     3   ar
    11     3     4   ar
    12     4     5   ar
    13     5     7    1
    14     7     8    2
    15     7     9   am
    16     9    10    1
    17    10    11    1
    18    11    12    1
    19    11    13    1
    20    13    14    1
    21    13    15    1
    22     5     6   ar
    23    22    23   ar
    24    23    18   ar
    25     6     1   ar
    26    15     9    1
    27    24    26    1
    28    24    27    1
    29    12    16    1
@<TRIPOS>MOLECULE
*****
 27 29 0 0 0
SMALL
GASTEIGER

@<TRIPOS>ATOM
      1 C          61.5580   87.7337    9.8025 C.ar    1  UNL1        0.1473
      2 C          60.3510   88.5062    9.3595 C.ar    1  UNL1        0.0376
      3 C          60.0340   89.8294    9.9909 C.ar    1  UNL1        0.0033
      4 C          60.9241   90.3801   11.0654 C.ar    1  UNL1        0.0047
      5 C          62.1311   89.6076   11.5084 C.ar    1  UNL1        0.0566
      6 C          62.4481   88.2844   10.8771 C.ar    1  UNL1        0.0421
      7 C          63.0212   90.1583   12.5829 C.2     1  UNL1        0.2493
      8 O          62.8676   89.6870   13.9986 O.2     1  UNL1       -0.2699
      9 N          64.0648   91.1803   12.2416 N.am    1  UNL1       -0.2706
     10 C          65.0223   91.8181   13.2042 C.3     1  UNL1        0.1258
     11 C          65.8834   92.7758   12.4353 C.3     1  UNL1        0.1644
     12 O          66.9777   93.6296   13.0043 O.3     1  UNL1       -0.3799
     13 C          65.4582   92.7300   10.9975 C.3     1  UNL1        0.2089
     14 F          66.0525   93.5298    9.8764 F       1  UNL1       -0.2328
     15 C          64.3342   91.7439   10.8779 C.3     1  UNL1        0.1315
     16 H          67.3778   94.1572   12.2955 H       1  UNL1        0.2105
     17 O          61.8750   86.4105    9.1712 O.3     1  UNL1       -0.4361
     18 C          62.9059   84.1406   12.2590 C.ar    1  UNL1       -0.0004
     19 C          63.8428   83.1728   11.5991 C.ar    1  UNL1        0.0180
     20 C          64.1239   83.2843   10.1299 C.ar    1  UNL1        0.1018
     21 N          63.4679   84.3635    9.3206 N.ar    1  UNL1       -0.2098
     22 C          62.5310   85.3312    9.9805 C.ar    1  UNL1        0.2294
     23 C          62.2499   85.2198   11.4497 C.ar    1  UNL1        0.0552
     24 N          63.0309   85.1359   14.6556 N.3     1  UNL1       -0.3175
     25 C          62.6248   84.0291   13.7282 C.3     1  UNL1        0.0924
     26 H          62.7646   84.8945   15.6101 H       1  UNL1        0.1192
     27 H          62.5629   85.9993   14.3800 H       1  UNL1        0.1192
@<TRIPOS>BOND
     1    24    25    1
     2    25    18    1
     3    18    19   ar
     4    19    20   ar
     5    20    21   ar
     6    21    22   ar
     7    22    17    1
     8    17     1    1
     9     1     2   ar
    10     2     3   ar
    11     3     4   ar
    12     4     5   ar
    13     5     7    1
    14     7     8    2
    15     7     9   am
    16     9    10    1
    17    10    11    1
    18    11    12    1
    19    11    13    1
    20    13    14    1
    21    13    15    1
    22     5     6   ar
    23    22    23   ar
    24    23    18   ar
    25     6     1   ar
    26    15     9    1
    27    24    26    1
    28    24    27    1
    29    12    16    1
@<TRIPOS>MOLECULE
*****
 27 29 0 0 0
SMALL
GASTEIGER

@<TRIPOS>ATOM
      1 C          61.5859   89.3988    9.8945 C.ar    1  UNL1        0.1473
      2 C          60.1693   89.3895    9.4013 C.ar    1  UNL1        0.0376
      3 C          59.5644   88.1189    8.8819 C.ar    1  UNL1        0.0033
      4 C          60.3760   86.8578    8.8556 C.ar    1  UNL1        0.0047
      5 C          61.7926   86.8671    9.3488 C.ar    1  UNL1        0.0566
      6 C          62.3975   88.1376    9.8682 C.ar    1  UNL1        0.0421
      7 C          62.6042   85.6060    9.3225 C.2     1  UNL1        0.2493
      8 O          63.1842   85.1141    8.0296 O.2     1  UNL1       -0.2699
      9 N          62.8359   84.8366   10.5892 N.am    1  UNL1       -0.2706
     10 C          63.6221   83.5656   10.7176 C.3     1  UNL1        0.1258
     11 C          63.5942   83.1467   12.1576 C.3     1  UNL1        0.1644
     12 O          64.2538   81.9294   12.7347 O.3     1  UNL1       -0.3799
     13 C          62.7907   84.1589   12.9193 C.3     1  UNL1        0.2089
     14 F          62.5058   84.1314   14.3917 F       1  UNL1       -0.2328
     15 C          62.3221   85.2033   11.9500 C.3     1  UNL1        0.1315
     16 H          64.0828   81.8906   13.6887 H       1  UNL1        0.2105
     17 O          62.1908   90.6693   10.4140 O.3     1  UNL1       -0.4361
     18 C          64.9066   91.5608   13.1671 C.ar    1  UNL1       -0.0004
     19 C          64.4886   90.6498   14.2831 C.ar    1  UNL1        0.0180
     20 C          63.3046   89.7454   14.1094 C.ar    1  UNL1        0.1018
     21 N          62.5387   89.7519   12.8197 N.ar    1  UNL1       -0.2098
     22 C          62.9567   90.6628   11.7037 C.ar    1  UNL1        0.2294
     23 C          64.1407   91.5672   11.8775 C.ar    1  UNL1        0.0552
     24 N          66.0257   93.6077   14.3106 N.3     1  UNL1       -0.3175
     25 C          66.0906   92.4652   13.3409 C.3     1  UNL1        0.0924
     26 H          66.9115   94.1134   14.3000 H       1  UNL1        0.1192
     27 H          65.8508   93.2479   15.2488 H       1  UNL1        0.1192
@<TRIPOS>BOND
     1    24    25    1
     2    25    18    1
     3    18    19   ar
     4    19    20   ar
     5    20    21   ar
     6    21    22   ar
     7    22    17    1
     8    17     1    1
     9     1     2   ar
    10     2     3   ar
    11     3     4   ar
    12     4     5   ar
    13     5     7    1
    14     7     8    2
    15     7     9   am
    16     9    10    1
    17    10    11    1
    18    11    12    1
    19    11    13    1
    20    13    14    1
    21    13    15    1
    22     5     6   ar
    23    22    23   ar
    24    23    18   ar
    25     6     1   ar
    26    15     9    1
    27    24    26    1
    28    24    27    1
    29    12    16    1
@<TRIPOS>MOLECULE
*****
 27 29 0 0 0
SMALL
GASTEIGER

@<TRIPOS>ATOM
      1 C          63.6080   88.4978   15.8590 C.ar    1  UNL1        0.1473
      2 C          62.9311   88.1904   17.1619 C.ar    1  UNL1        0.0376
      3 C          62.8271   86.7712   17.6364 C.ar    1  UNL1        0.0033
      4 C          63.3998   85.6595   16.8081 C.ar    1  UNL1        0.0047
      5 C          64.0767   85.9669   15.5053 C.ar    1  UNL1        0.0566
      6 C          64.1808   87.3861   15.0308 C.ar    1  UNL1        0.0421
      7 C          64.6494   84.8553   14.6770 C.2     1  UNL1        0.2493
      8 O          66.0675   84.9334   14.1945 O.2     1  UNL1       -0.2699
      9 N          63.8040   83.6653   14.3313 N.am    1  UNL1       -0.2706
     10 C          64.2371   82.4832   13.5158 C.3     1  UNL1        0.1258
     11 C          63.0779   81.5360   13.4208 C.3     1  UNL1        0.1644
     12 O          63.0696   80.2226   12.6963 O.3     1  UNL1       -0.3799
     13 C          61.9284   82.1327   14.1776 C.3     1  UNL1        0.2089
     14 F          60.5689   81.5208   14.3428 F       1  UNL1       -0.2328
     15 C          62.3772   83.4487   14.7403 C.3     1  UNL1        0.1315
     16 H          62.1979   79.8074   12.7895 H       1  UNL1        0.2105
     17 O          63.7121   89.9169   15.3845 O.3     1  UNL1       -0.4361
     18 C          64.2303   91.5012   11.7828 C.ar    1  UNL1       -0.0004
     19 C          63.0840   90.8869   11.0354 C.ar    1  UNL1        0.0180
     20 C          62.1471   89.9494   11.7376 C.ar    1  UNL1        0.1018
     21 N          62.3564   89.6260   13.1873 N.ar    1  UNL1       -0.2098
     22 C          63.5027   90.2403   13.9347 C.ar    1  UNL1        0.2294
     23 C          64.4397   91.1778   13.2325 C.ar    1  UNL1        0.0552
     24 N          65.6601   93.6704   11.7806 N.3     1  UNL1       -0.3175
     25 C          65.1673   92.4387   11.0806 C.3     1  UNL1        0.0924
     26 H          66.2830   94.1877   11.1603 H       1  UNL1        0.1192
     27 H          66.1664   93.4023   12.6245 H       1  UNL1        0.1192
@<TRIPOS>BOND
     1    24    25    1
     2    25    18    1
     3    18    19   ar
     4    19    20   ar
     5    20    21   ar
     6    21    22   ar
     7    22    17    1
     8    17     1    1
     9     1     2   ar
    10     2     3   ar
    11     3     4   ar
    12     4     5   ar
    13     5     7    1
    14     7     8    2
    15     7     9   am
    16     9    10    1
    17    10    11    1
    18    11    12    1
    19    11    13    1
    20    13    14    1
    21    13    15    1
    22     5     6   ar
    23    22    23   ar
    24    23    18   ar
    25     6     1   ar
    26    15     9    1
    27    24    26    1
    28    24    27    1
    29    12    16    1
@<TRIPOS>MOLECULE
*****
 27 29 0 0 0
SMALL
GASTEIGER

@<TRIPOS>ATOM
      1 C          64.0221   88.3174   15.2579 C.ar    1  UNL1        0.1473
      2 C          63.3054   88.4912   16.5641 C.ar    1  UNL1        0.0376
      3 C          62.8342   87.2885   17.3269 C.ar    1  UNL1        0.0033
      4 C          63.0797   85.9122   16.7834 C.ar    1  UNL1        0.0047
      5 C          63.7964   85.7384   15.4772 C.ar    1  UNL1        0.0566
      6 C          64.2676   86.9410   14.7145 C.ar    1  UNL1        0.0421
      7 C          64.0419   84.3621   14.9338 C.2     1  UNL1        0.2493
      8 O          64.5900   83.2895   15.8277 O.2     1  UNL1       -0.2699
      9 N          63.7394   84.0583   13.4963 N.am    1  UNL1       -0.2706
     10 C          63.9322   82.7359   12.8151 C.3     1  UNL1        0.1258
     11 C          63.5028   82.8839   11.3855 C.3     1  UNL1        0.1644
     12 O          63.5274   81.8071   10.3415 O.3     1  UNL1       -0.3799
     13 C          63.0446   84.2979   11.1831 C.3     1  UNL1        0.2089
     14 F          62.5305   84.8832    9.9013 F       1  UNL1       -0.2328
     15 C          63.1908   85.0236   12.4877 C.3     1  UNL1        0.1315
     16 H          63.1982   82.1635    9.5016 H       1  UNL1        0.2105
     17 O          64.4932   89.5199   14.4952 O.3     1  UNL1       -0.4361
     18 C          62.4892   89.0999   11.0955 C.ar    1  UNL1       -0.0004
     19 C          62.8119   90.3966   10.4142 C.ar    1  UNL1        0.0180
     20 C          63.6950   91.4012   11.0932 C.ar    1  UNL1        0.1018
     21 N          64.2555   91.1089   12.4535 N.ar    1  UNL1       -0.2098
     22 C          63.9328   89.8122   13.1348 C.ar    1  UNL1        0.2294
     23 C          63.0496   88.8077   12.4558 C.ar    1  UNL1        0.0552
     24 N          60.6151   87.3047   11.2184 N.3     1  UNL1       -0.3175
     25 C          61.6060   88.0954   10.4166 C.3     1  UNL1        0.0924
     26 H          60.1035   86.6745   10.6007 H       1  UNL1        0.1192
     27 H          59.9603   87.9412   11.6728 H       1  UNL1        0.1192
@<TRIPOS>BOND
     1    24    25    1
     2    25    18    1
     3    18    19   ar
     4    19    20   ar
     5    20    21   ar
     6    21    22   ar
     7    22    17    1
     8    17     1    1
     9     1     2   ar
    10     2     3   ar
    11     3     4   ar
    12     4     5   ar
    13     5     7    1
    14     7     8    2
    15     7     9   am
    16     9    10    1
    17    10    11    1
    18    11    12    1
    19    11    13    1
    20    13    14    1
    21    13    15    1
    22     5     6   ar
    23    22    23   ar
    24    23    18   ar
    25     6     1   ar
    26    15     9    1
    27    24    26    1
    28    24    27    1
    29    12    16    1
@<TRIPOS>MOLECULE
*****
 27 29 0 0 0
SMALL
GASTEIGER

@<TRIPOS>ATOM
      1 C          61.8923   86.6684    9.5248 C.ar    1  UNL1        0.1473
      2 C          60.4024   86.7769    9.3891 C.ar    1  UNL1        0.0376
      3 C          59.7152   88.0773    9.6841 C.ar    1  UNL1        0.0033
      4 C          60.5179   89.2689   10.1148 C.ar    1  UNL1        0.0047
      5 C          62.0078   89.1604   10.2505 C.ar    1  UNL1        0.0566
      6 C          62.6950   87.8601    9.9555 C.ar    1  UNL1        0.0421
      7 C          62.8105   90.3520   10.6813 C.2     1  UNL1        0.2493
      8 O          63.0374   91.4878    9.7280 O.2     1  UNL1       -0.2699
      9 N          63.3863   90.4080   12.0653 N.am    1  UNL1       -0.2706
     10 C          64.2056   91.5280   12.6347 C.3     1  UNL1        0.1258
     11 C          64.5695   91.1660   14.0441 C.3     1  UNL1        0.1644
     12 O          65.3848   92.0011   14.9865 O.3     1  UNL1       -0.3799
     13 C          63.9751   89.8222   14.3458 C.3     1  UNL1        0.2089
     14 F          64.0915   89.0777   15.6427 F       1  UNL1       -0.2328
     15 C          63.2438   89.3538   13.1228 C.3     1  UNL1        0.1315
     16 H          65.4736   91.5384   15.8343 H       1  UNL1        0.2105
     17 O          62.5795   85.3681    9.2298 O.3     1  UNL1       -0.4361
     18 C          62.9960   83.8517   12.8736 C.ar    1  UNL1       -0.0004
     19 C          63.9662   82.7389   12.6083 C.ar    1  UNL1        0.0180
     20 C          64.4741   82.5025   11.2169 C.ar    1  UNL1        0.1018
     21 N          64.0119   83.3789   10.0907 N.ar    1  UNL1       -0.2098
     22 C          63.0418   84.4917   10.3560 C.ar    1  UNL1        0.2294
     23 C          62.5338   84.7281   11.7474 C.ar    1  UNL1        0.0552
     24 N          62.6511   83.0277   15.3132 N.3     1  UNL1       -0.3175
     25 C          62.4881   84.0882   14.2650 C.3     1  UNL1        0.0924
     26 H          62.2517   83.3549   16.1929 H       1  UNL1        0.1192
     27 H          63.6428   82.8281   15.4436 H       1  UNL1        0.1192
@<TRIPOS>BOND
     1    24    25    1
     2    25    18    1
     3    18    19   ar
     4    19    20   ar
     5    20    21   ar
     6    21    22   ar
     7    22    17    1
     8    17     1    1
     9     1     2   ar
    10     2     3   ar
    11     3     4   ar
    12     4     5   ar
    13     5     7    1
    14     7     8    2
    15     7     9   am
    16     9    10    1
    17    10    11    1
    18    11    12    1
    19    11    13    1
    20    13    14    1
    21    13    15    1
    22     5     6   ar
    23    22    23   ar
    24    23    18   ar
    25     6     1   ar
    26    15     9    1
    27    24    26    1
    28    24    27    1
    29    12    16    1
@<TRIPOS>MOLECULE
*****
 27 29 0 0 0
SMALL
GASTEIGER

@<TRIPOS>ATOM
      1 C          63.9292   88.2541   15.5789 C.ar    1  UNL1        0.1473
      2 C          63.1093   88.3275   16.8328 C.ar    1  UNL1        0.0376
      3 C          62.5831   87.0703   17.4595 C.ar    1  UNL1        0.0033
      4 C          62.8768   85.7399   16.8323 C.ar    1  UNL1        0.0047
      5 C          63.6967   85.6665   15.5783 C.ar    1  UNL1        0.0566
      6 C          64.2229   86.9236   14.9516 C.ar    1  UNL1        0.0421
      7 C          63.9904   84.3360   14.9511 C.2     1  UNL1        0.2493
      8 O          64.5943   83.2362   15.7731 O.2     1  UNL1       -0.2699
      9 N          63.6803   84.1052   13.5017 N.am    1  UNL1       -0.2706
     10 C          63.9172   82.8345   12.7408 C.3     1  UNL1        0.1258
     11 C          63.4621   83.0487   11.3276 C.3     1  UNL1        0.1644
     12 O          63.5158   82.0373   10.2212 O.3     1  UNL1       -0.3799
     13 C          62.9439   84.4518   11.2151 C.3     1  UNL1        0.2089
     14 F          62.3884   85.0899    9.9765 F       1  UNL1       -0.2328
     15 C          63.0787   85.1048   12.5588 C.3     1  UNL1        0.1315
     16 H          63.1607   82.4287    9.4078 H       1  UNL1        0.2105
     17 O          64.4554   89.5112   14.9522 O.3     1  UNL1       -0.4361
     18 C          64.1181   91.4758   11.5204 C.ar    1  UNL1       -0.0004
     19 C          62.8456   90.8911   10.9829 C.ar    1  UNL1        0.0180
     20 C          62.1098   89.8464   11.7685 C.ar    1  UNL1        0.1018
     21 N          62.6463   89.3864   13.0915 N.ar    1  UNL1       -0.2098
     22 C          63.9187   89.9712   13.6290 C.ar    1  UNL1        0.2294
     23 C          64.6546   91.0159   12.8435 C.ar    1  UNL1        0.0552
     24 N          66.3535   92.5136   10.6982 N.3     1  UNL1       -0.3175
     25 C          64.8540   92.5205   10.7349 C.3     1  UNL1        0.0924
     26 H          66.6831   93.2880   10.1219 H       1  UNL1        0.1192
     27 H          66.6798   91.6321   10.3021 H       1  UNL1        0.1192
@<TRIPOS>BOND
     1    24    25    1
     2    25    18    1
     3    18    19   ar
     4    19    20   ar
     5    20    21   ar
     6    21    22   ar
     7    22    17    1
     8    17     1    1
     9     1     2   ar
    10     2     3   ar
    11     3     4   ar
    12     4     5   ar
    13     5     7    1
    14     7     8    2
    15     7     9   am
    16     9    10    1
    17    10    11    1
    18    11    12    1
    19    11    13    1
    20    13    14    1
    21    13    15    1
    22     5     6   ar
    23    22    23   ar
    24    23    18   ar
    25     6     1   ar
    26    15     9    1
    27    24    26    1
    28    24    27    1
    29    12    16    1
