@<TRIPOS>MOLECULE
*****
 31 33 0 0 0
SMALL
GASTEIGER

@<TRIPOS>ATOM
      1 C          63.4352   85.1763   13.3977 C.ar    1  UNL1       -0.0004
      2 C          64.2631   85.6952   14.5358 C.ar    1  UNL1       -0.0024
      3 C          64.5379   87.1651   14.6541 C.ar    1  UNL1       -0.0002
      4 C          63.9850   88.1160   13.6343 C.ar    1  UNL1        0.0030
      5 C          64.2599   89.5859   13.7527 C.ar    1  UNL1        0.0369
      6 C          63.7069   90.5368   12.7329 C.ar    1  UNL1        0.1386
      7 C          62.8790   90.0178   11.5947 C.ar    1  UNL1        0.0369
      8 C          62.6041   88.5480   11.4764 C.ar    1  UNL1        0.0031
      9 C          63.1571   87.5971   12.4962 C.ar    1  UNL1       -0.0001
     10 C          62.8822   86.1273   12.3779 C.ar    1  UNL1       -0.0024
     11 C          63.1603   83.7065   13.2793 C.3     1  UNL1        0.1240
     12 N          63.5259   82.9739   12.0224 N.ar    1  UNL1       -0.3045
     13 C          62.7833   81.8125   11.4311 C.ar    1  UNL1        0.0983
     14 C          63.4967   81.3950   10.1794 C.ar    1  UNL1        0.1193
     15 N          64.6802   82.2984    9.9971 N.ar    1  UNL1       -0.2223
     16 C          64.6982   83.2742   11.1361 C.ar    1  UNL1        0.1788
     17 C          62.1010   83.7124   15.6516 C.3     1  UNL1        0.0197
     18 C          62.5198   82.9692   14.4178 C.3     1  UNL1        0.0827
     19 N          62.2982   81.4887   14.3225 N.3     1  UNL1       -0.2696
     20 C          60.9072   80.9464   14.1772 C.3     1  UNL1        0.0897
     21 C          63.4675   80.5506   14.3725 C.3     1  UNL1        0.0897
     22 O          63.9818   92.0066   12.8512 O.3     1  UNL1       -0.4750
     23 C          65.3831   92.5216   12.7057 C.3     1  UNL1        0.2138
     24 C          65.7175   93.4857   11.6063 C.3     1  UNL1        0.1092
     25 C          64.9932   92.6151   10.6227 C.3     1  UNL1        0.0129
     26 C          66.4418   94.3562   12.5899 C.3     1  UNL1        0.0129
     27 C          66.0518   94.4497   10.5069 C.2     1  UNL1        0.2283
     28 O          65.2688   95.7207   10.3599 O.2     1  UNL1       -0.2748
     29 N          67.1692   94.1428    9.5543 N.am    1  UNL1       -0.2759
     30 C          67.5036   95.1070    8.4549 C.3     1  UNL1        0.1149
     31 C          67.9522   92.8719    9.7013 C.3     1  UNL1        0.1149
@<TRIPOS>BOND
     1    17    18    1
     2    18    11    1
     3    11     1    1
     4     1     2   ar
     5     2     3   ar
     6     3     4   ar
     7     4     5   ar
     8     5     6   ar
     9     6    22    1
    10    22    23    1
    11    23    24    1
    12    24    25    1
    13    24    26    1
    14    24    27    1
    15    27    28    2
    16    27    29   am
    17    29    30    1
    18    29    31    1
    19     6     7   ar
    20     7     8   ar
    21     8     9   ar
    22     9    10   ar
    23    11    12    1
    24    12    13   ar
    25    13    14   ar
    26    14    15   ar
    27    15    16   ar
    28    18    19    1
    29    19    20    1
    30    19    21    1
    31    10     1   ar
    32    16    12   ar
    33     9     4   ar
@<TRIPOS>MOLECULE
*****
 31 33 0 0 0
SMALL
GASTEIGER

@<TRIPOS>ATOM
      1 C          65.3063   92.1096   12.5070 C.ar    1  UNL1       -0.0004
      2 C          64.8927   91.3343   13.7225 C.ar    1  UNL1       -0.0024
      3 C          63.7197   90.4019   13.6540 C.ar    1  UNL1       -0.0002
      4 C          62.9604   90.2449   12.3699 C.ar    1  UNL1        0.0030
      5 C          61.7874   89.3124   12.3014 C.ar    1  UNL1        0.0369
      6 C          61.0281   89.1554   11.0173 C.ar    1  UNL1        0.1386
      7 C          61.4419   89.9309    9.8017 C.ar    1  UNL1        0.0369
      8 C          62.6148   90.8633    9.8703 C.ar    1  UNL1        0.0031
      9 C          63.3741   91.0203   11.1544 C.ar    1  UNL1       -0.0001
     10 C          64.5471   91.9526   11.2229 C.ar    1  UNL1       -0.0024
     11 C          66.4794   93.0421   12.5755 C.3     1  UNL1        0.1240
     12 N          67.3797   93.0278   13.7751 N.ar    1  UNL1       -0.3045
     13 C          67.2740   93.9315   14.9677 C.ar    1  UNL1        0.0983
     14 C          68.3729   93.5695   15.9224 C.ar    1  UNL1        0.1193
     15 N          69.1577   92.4421   15.3199 N.ar    1  UNL1       -0.2223
     16 C          68.5439   92.1074   13.9928 C.ar    1  UNL1        0.1788
     17 C          66.1885   95.3786   11.4771 C.3     1  UNL1        0.0197
     18 C          66.7520   93.9888   11.4444 C.3     1  UNL1        0.0827
     19 N          67.5880   93.5457   10.2804 N.3     1  UNL1       -0.2696
     20 C          68.1665   92.1619   10.2562 C.3     1  UNL1        0.0897
     21 C          67.8455   94.4864    9.1408 C.3     1  UNL1        0.0897
     22 O          59.8551   88.2230   10.9488 O.3     1  UNL1       -0.4750
     23 C          59.2611   87.8615    9.6197 C.3     1  UNL1        0.2138
     24 C          59.9540   86.8693    8.7334 C.3     1  UNL1        0.1092
     25 C          59.3587   87.5318    7.5265 C.3     1  UNL1        0.0129
     26 C          60.5492   86.2069    9.9403 C.3     1  UNL1        0.0129
     27 C          60.6468   85.8772    7.8471 C.2     1  UNL1        0.2283
     28 O          59.8578   85.0866    6.8459 O.2     1  UNL1       -0.2748
     29 N          62.1288   85.6757    7.9619 N.am    1  UNL1       -0.2759
     30 C          62.8217   84.6835    7.0756 C.3     1  UNL1        0.1149
     31 C          62.9179   86.4663    8.9631 C.3     1  UNL1        0.1149
@<TRIPOS>BOND
     1    17    18    1
     2    18    11    1
     3    11     1    1
     4     1     2   ar
     5     2     3   ar
     6     3     4   ar
     7     4     5   ar
     8     5     6   ar
     9     6    22    1
    10    22    23    1
    11    23    24    1
    12    24    25    1
    13    24    26    1
    14    24    27    1
    15    27    28    2
    16    27    29   am
    17    29    30    1
    18    29    31    1
    19     6     7   ar
    20     7     8   ar
    21     8     9   ar
    22     9    10   ar
    23    11    12    1
    24    12    13   ar
    25    13    14   ar
    26    14    15   ar
    27    15    16   ar
    28    18    19    1
    29    19    20    1
    30    19    21    1
    31    10     1   ar
    32    16    12   ar
    33     9     4   ar
@<TRIPOS>MOLECULE
*****
 31 33 0 0 0
SMALL
GASTEIGER

@<TRIPOS>ATOM
      1 C          65.3965   92.1517   12.3904 C.ar    1  UNL1       -0.0004
      2 C          65.0529   91.2368   13.5283 C.ar    1  UNL1       -0.0024
      3 C          63.9402   90.2417   13.3808 C.ar    1  UNL1       -0.0002
      4 C          63.1712   90.1615   12.0955 C.ar    1  UNL1        0.0030
      5 C          62.0585   89.1664   11.9480 C.ar    1  UNL1        0.0369
      6 C          61.2895   89.0861   10.6626 C.ar    1  UNL1        0.1386
      7 C          61.6332   90.0011    9.5247 C.ar    1  UNL1        0.0369
      8 C          62.7459   90.9962    9.6722 C.ar    1  UNL1        0.0031
      9 C          63.5149   91.0764   10.9575 C.ar    1  UNL1       -0.0001
     10 C          64.6275   92.0715   11.1050 C.ar    1  UNL1       -0.0024
     11 C          66.5092   93.1469   12.5378 C.3     1  UNL1        0.1240
     12 N          67.3872   93.1155   13.7536 N.ar    1  UNL1       -0.3045
     13 C          67.2126   93.9482   14.9890 C.ar    1  UNL1        0.0983
     14 C          68.3114   93.5933   15.9464 C.ar    1  UNL1        0.1193
     15 N          69.1652   92.5413   15.3027 N.ar    1  UNL1       -0.2223
     16 C          68.5940   92.2460   13.9475 C.ar    1  UNL1        0.1788
     17 C          66.1798   95.5550   11.6201 C.3     1  UNL1        0.0197
     18 C          66.7438   94.1733   11.4695 C.3     1  UNL1        0.0827
     19 N          67.5425   93.8180   10.2505 N.3     1  UNL1       -0.2696
     20 C          68.1288   92.4442   10.1121 C.3     1  UNL1        0.0897
     21 C          67.7550   94.8364    9.1700 C.3     1  UNL1        0.0897
     22 O          60.1769   88.0911   10.5152 O.3     1  UNL1       -0.4750
     23 C          60.3935   86.6599   10.9091 C.3     1  UNL1        0.2138
     24 C          61.5509   85.8928   10.3418 C.3     1  UNL1        0.1092
     25 C          60.9099   85.9282    8.9862 C.3     1  UNL1        0.0129
     26 C          62.1919   85.8574   11.6975 C.3     1  UNL1        0.0129
     27 C          62.7083   85.1257    9.7745 C.2     1  UNL1        0.2283
     28 O          63.3430   85.5673    8.4891 O.2     1  UNL1       -0.2748
     29 N          63.2310   83.9169   10.4926 N.am    1  UNL1       -0.2759
     30 C          64.3885   83.1498    9.9252 C.3     1  UNL1        0.1149
     31 C          62.5964   83.4752   11.7779 C.3     1  UNL1        0.1149
@<TRIPOS>BOND
     1    17    18    1
     2    18    11    1
     3    11     1    1
     4     1     2   ar
     5     2     3   ar
     6     3     4   ar
     7     4     5   ar
     8     5     6   ar
     9     6    22    1
    10    22    23    1
    11    23    24    1
    12    24    25    1
    13    24    26    1
    14    24    27    1
    15    27    28    2
    16    27    29   am
    17    29    30    1
    18    29    31    1
    19     6     7   ar
    20     7     8   ar
    21     8     9   ar
    22     9    10   ar
    23    11    12    1
    24    12    13   ar
    25    13    14   ar
    26    14    15   ar
    27    15    16   ar
    28    18    19    1
    29    19    20    1
    30    19    21    1
    31    10     1   ar
    32    16    12   ar
    33     9     4   ar
@<TRIPOS>MOLECULE
*****
 31 33 0 0 0
SMALL
GASTEIGER

@<TRIPOS>ATOM
      1 C          63.5712   85.5215   12.9145 C.ar    1  UNL1       -0.0004
      2 C          64.2485   85.4817   14.2522 C.ar    1  UNL1       -0.0024
      3 C          64.5693   86.7599   14.9687 C.ar    1  UNL1       -0.0002
      4 C          64.2129   88.0778   14.3474 C.ar    1  UNL1        0.0030
      5 C          64.5338   89.3560   15.0639 C.ar    1  UNL1        0.0369
      6 C          64.1773   90.6739   14.4426 C.ar    1  UNL1        0.1386
      7 C          63.4999   90.7137   13.1048 C.ar    1  UNL1        0.0369
      8 C          63.1791   89.4355   12.3884 C.ar    1  UNL1        0.0031
      9 C          63.5355   88.1176   13.0097 C.ar    1  UNL1       -0.0001
     10 C          63.2147   86.8395   12.2932 C.ar    1  UNL1       -0.0024
     11 C          63.2503   84.2433   12.1980 C.3     1  UNL1        0.1240
     12 N          62.8963   83.0135   12.9803 N.ar    1  UNL1       -0.3045
     13 C          63.4034   81.6261   12.7193 C.ar    1  UNL1        0.0983
     14 C          62.7935   80.7102   13.7388 C.ar    1  UNL1        0.1193
     15 N          61.9095   81.5315   14.6299 N.ar    1  UNL1       -0.2223
     16 C          61.9731   82.9550   14.1611 C.ar    1  UNL1        0.1788
     17 C          64.1273   83.1707   10.0002 C.3     1  UNL1        0.0197
     18 C          63.2834   84.1951   10.6991 C.3     1  UNL1        0.0827
     19 N          62.4726   85.1711    9.8992 N.3     1  UNL1       -0.2696
     20 C          62.9216   85.5701    8.5246 C.3     1  UNL1        0.0897
     21 C          61.2130   85.7483   10.4738 C.3     1  UNL1        0.0897
     22 O          64.4981   91.9521   15.1591 O.3     1  UNL1       -0.4750
     23 C          65.9155   92.4387   15.2265 C.3     1  UNL1        0.2138
     24 C          66.8062   92.3227   14.0252 C.3     1  UNL1        0.1092
     25 C          66.3158   93.6521   13.5332 C.3     1  UNL1        0.0129
     26 C          67.2965   90.9932   14.5172 C.3     1  UNL1        0.0129
     27 C          67.6969   92.2066   12.8240 C.2     1  UNL1        0.2283
     28 O          69.1651   91.9544   13.0004 O.2     1  UNL1       -0.2748
     29 N          67.1196   92.3428   11.4462 N.am    1  UNL1       -0.2759
     30 C          68.0105   92.2267   10.2449 C.3     1  UNL1        0.1149
     31 C          65.6516   92.5950   11.2697 C.3     1  UNL1        0.1149
@<TRIPOS>BOND
     1    17    18    1
     2    18    11    1
     3    11     1    1
     4     1     2   ar
     5     2     3   ar
     6     3     4   ar
     7     4     5   ar
     8     5     6   ar
     9     6    22    1
    10    22    23    1
    11    23    24    1
    12    24    25    1
    13    24    26    1
    14    24    27    1
    15    27    28    2
    16    27    29   am
    17    29    30    1
    18    29    31    1
    19     6     7   ar
    20     7     8   ar
    21     8     9   ar
    22     9    10   ar
    23    11    12    1
    24    12    13   ar
    25    13    14   ar
    26    14    15   ar
    27    15    16   ar
    28    18    19    1
    29    19    20    1
    30    19    21    1
    31    10     1   ar
    32    16    12   ar
    33     9     4   ar
@<TRIPOS>MOLECULE
*****
 31 33 0 0 0
SMALL
GASTEIGER

@<TRIPOS>ATOM
      1 C          62.4125   88.1761   10.4624 C.ar    1  UNL1       -0.0004
      2 C          62.3719   89.6114   10.0286 C.ar    1  UNL1       -0.0024
      3 C          62.8658   90.6874   10.9496 C.ar    1  UNL1       -0.0002
      4 C          63.4002   90.3281   12.3043 C.ar    1  UNL1        0.0030
      5 C          63.8941   91.4042   13.2253 C.ar    1  UNL1        0.0369
      6 C          64.4286   91.0449   14.5800 C.ar    1  UNL1        0.1386
      7 C          64.4691   89.6095   15.0137 C.ar    1  UNL1        0.0369
      8 C          63.9753   88.5335   14.0928 C.ar    1  UNL1        0.0031
      9 C          63.4408   88.8928   12.7381 C.ar    1  UNL1       -0.0001
     10 C          62.9470   87.8168   11.8171 C.ar    1  UNL1       -0.0024
     11 C          61.9186   87.1000    9.5414 C.3     1  UNL1        0.1240
     12 N          60.6693   87.3143    8.7393 N.ar    1  UNL1       -0.3045
     13 C          60.1196   88.6393    8.3007 C.ar    1  UNL1        0.0983
     14 C          58.8609   88.3852    7.5254 C.ar    1  UNL1        0.1193
     15 N          58.6326   86.9032    7.4849 N.ar    1  UNL1       -0.2223
     16 C          59.7503   86.2414    8.2351 C.ar    1  UNL1        0.1788
     17 C          63.3715   85.4642    8.1401 C.3     1  UNL1        0.0197
     18 C          62.6740   85.8096    9.4224 C.3     1  UNL1        0.0827
     19 N          62.7321   84.8645   10.5858 N.3     1  UNL1       -0.2696
     20 C          63.6960   83.7153   10.5712 C.3     1  UNL1        0.0897
     21 C          61.8262   85.0686   11.7638 C.3     1  UNL1        0.0897
     22 O          64.9224   92.1209   15.5010 O.3     1  UNL1       -0.4750
     23 C          66.2447   92.7806   15.2428 C.3     1  UNL1        0.2138
     24 C          66.9673   92.5324   13.9520 C.3     1  UNL1        0.1092
     25 C          67.4296   91.2015   14.4668 C.3     1  UNL1        0.0129
     26 C          66.5050   93.8632   13.4372 C.3     1  UNL1        0.0129
     27 C          67.6899   92.2841   12.6613 C.2     1  UNL1        0.2283
     28 O          69.0774   91.7140   12.6760 O.2     1  UNL1       -0.2748
     29 N          67.0253   92.6060   11.3556 N.am    1  UNL1       -0.2759
     30 C          67.7480   92.3577   10.0648 C.3     1  UNL1        0.1149
     31 C          65.6379   93.1761   11.3408 C.3     1  UNL1        0.1149
@<TRIPOS>BOND
     1    17    18    1
     2    18    11    1
     3    11     1    1
     4     1     2   ar
     5     2     3   ar
     6     3     4   ar
     7     4     5   ar
     8     5     6   ar
     9     6    22    1
    10    22    23    1
    11    23    24    1
    12    24    25    1
    13    24    26    1
    14    24    27    1
    15    27    28    2
    16    27    29   am
    17    29    30    1
    18    29    31    1
    19     6     7   ar
    20     7     8   ar
    21     8     9   ar
    22     9    10   ar
    23    11    12    1
    24    12    13   ar
    25    13    14   ar
    26    14    15   ar
    27    15    16   ar
    28    18    19    1
    29    19    20    1
    30    19    21    1
    31    10     1   ar
    32    16    12   ar
    33     9     4   ar
@<TRIPOS>MOLECULE
*****
 31 33 0 0 0
SMALL
GASTEIGER

@<TRIPOS>ATOM
      1 C          62.9902   85.2035   12.6858 C.ar    1  UNL1       -0.0004
      2 C          62.3205   85.8245   11.4960 C.ar    1  UNL1       -0.0024
      3 C          62.3886   87.3082   11.2865 C.ar    1  UNL1       -0.0002
      4 C          63.1264   88.1709   12.2669 C.ar    1  UNL1        0.0030
      5 C          63.1945   89.6547   12.0574 C.ar    1  UNL1        0.0369
      6 C          63.9324   90.5175   13.0378 C.ar    1  UNL1        0.1386
      7 C          64.6021   89.8965   14.2278 C.ar    1  UNL1        0.0369
      8 C          64.5340   88.4128   14.4372 C.ar    1  UNL1        0.0031
      9 C          63.7962   87.5500   13.4568 C.ar    1  UNL1       -0.0001
     10 C          63.7281   86.0663   13.6663 C.ar    1  UNL1       -0.0024
     11 C          62.9221   83.7197   12.8954 C.3     1  UNL1        0.1240
     12 N          63.2834   82.7871   11.7775 N.ar    1  UNL1       -0.3045
     13 C          62.6950   81.4284   11.5378 C.ar    1  UNL1        0.0983
     14 C          63.3445   80.8510   10.3152 C.ar    1  UNL1        0.1193
     15 N          64.3344   81.8529    9.7992 N.ar    1  UNL1       -0.2223
     16 C          64.2966   83.0495   10.7030 C.ar    1  UNL1        0.1788
     17 C          61.5148   82.0328   14.2824 C.3     1  UNL1        0.0197
     18 C          62.4928   83.1686   14.2227 C.3     1  UNL1        0.0827
     19 N          63.0413   83.7534   15.4905 N.3     1  UNL1       -0.2696
     20 C          62.1929   84.6684   16.3229 C.3     1  UNL1        0.0897
     21 C          64.4382   83.4231   15.9258 C.3     1  UNL1        0.0897
     22 O          64.0005   92.0012   12.8284 O.3     1  UNL1       -0.4750
     23 C          65.3318   92.6897   12.7673 C.3     1  UNL1        0.2138
     24 C          65.6729   93.5601   11.5943 C.3     1  UNL1        0.1092
     25 C          66.4314   94.4840   12.5003 C.3     1  UNL1        0.0129
     26 C          64.9145   92.6361   10.6882 C.3     1  UNL1        0.0129
     27 C          66.0140   94.4304   10.4212 C.2     1  UNL1        0.2283
     28 O          65.2450   95.6949   10.1767 O.2     1  UNL1       -0.2748
     29 N          67.1242   94.0364    9.4926 N.am    1  UNL1       -0.2759
     30 C          67.4653   94.9068    8.3195 C.3     1  UNL1        0.1149
     31 C          67.8932   92.7719    9.7370 C.3     1  UNL1        0.1149
@<TRIPOS>BOND
     1    17    18    1
     2    18    11    1
     3    11     1    1
     4     1     2   ar
     5     2     3   ar
     6     3     4   ar
     7     4     5   ar
     8     5     6   ar
     9     6    22    1
    10    22    23    1
    11    23    24    1
    12    24    25    1
    13    24    26    1
    14    24    27    1
    15    27    28    2
    16    27    29   am
    17    29    30    1
    18    29    31    1
    19     6     7   ar
    20     7     8   ar
    21     8     9   ar
    22     9    10   ar
    23    11    12    1
    24    12    13   ar
    25    13    14   ar
    26    14    15   ar
    27    15    16   ar
    28    18    19    1
    29    19    20    1
    30    19    21    1
    31    10     1   ar
    32    16    12   ar
    33     9     4   ar
@<TRIPOS>MOLECULE
*****
 31 33 0 0 0
SMALL
GASTEIGER

@<TRIPOS>ATOM
      1 C          62.5692   87.3514   10.7640 C.ar    1  UNL1       -0.0004
      2 C          62.4397   88.7028   10.1261 C.ar    1  UNL1       -0.0024
      3 C          62.8345   89.9328   10.8884 C.ar    1  UNL1       -0.0002
      4 C          63.3587   89.8115   12.2885 C.ar    1  UNL1        0.0030
      5 C          63.7535   91.0417   13.0508 C.ar    1  UNL1        0.0369
      6 C          64.2777   90.9203   14.4510 C.ar    1  UNL1        0.1386
      7 C          64.4071   89.5688   15.0889 C.ar    1  UNL1        0.0369
      8 C          64.0124   88.3388   14.3266 C.ar    1  UNL1        0.0031
      9 C          63.4881   88.4601   12.9265 C.ar    1  UNL1       -0.0001
     10 C          63.0934   87.2301   12.1642 C.ar    1  UNL1       -0.0024
     11 C          62.1744   86.1213   10.0017 C.3     1  UNL1        0.1240
     12 N          62.7395   84.7864   10.3874 N.ar    1  UNL1       -0.3045
     13 C          63.7206   83.9803    9.5889 C.ar    1  UNL1        0.0983
     14 C          64.0102   82.7189   10.3473 C.ar    1  UNL1        0.1193
     15 N          63.2081   82.7455   11.6145 N.ar    1  UNL1       -0.2223
     16 C          62.4227   84.0232   11.6393 C.ar    1  UNL1        0.1788
     17 C          61.5374   85.5703    7.5439 C.3     1  UNL1        0.0197
     18 C          61.2146   86.2261    8.8539 C.3     1  UNL1        0.0827
     19 N          59.9318   86.9865    9.0158 N.3     1  UNL1       -0.2696
     20 C          58.9645   87.0776    7.8730 C.3     1  UNL1        0.0897
     21 C          59.6164   87.6559   10.3205 C.3     1  UNL1        0.0897
     22 O          64.6725   92.1504   15.2133 O.3     1  UNL1       -0.4750
     23 C          66.0944   92.6272   15.1833 C.3     1  UNL1        0.2138
     24 C          66.9269   92.4266   13.9518 C.3     1  UNL1        0.1092
     25 C          67.3866   91.0996   14.4788 C.3     1  UNL1        0.0129
     26 C          66.4672   93.7535   13.4248 C.3     1  UNL1        0.0129
     27 C          67.7594   92.2259   12.7203 C.2     1  UNL1        0.2283
     28 O          69.2012   91.8311   12.8458 O.2     1  UNL1       -0.2748
     29 N          67.1503   92.4200   11.3634 N.am    1  UNL1       -0.2759
     30 C          67.9830   92.2193   10.1319 C.3     1  UNL1        0.1149
     31 C          65.7087   92.8147   11.2379 C.3     1  UNL1        0.1149
@<TRIPOS>BOND
     1    17    18    1
     2    18    11    1
     3    11     1    1
     4     1     2   ar
     5     2     3   ar
     6     3     4   ar
     7     4     5   ar
     8     5     6   ar
     9     6    22    1
    10    22    23    1
    11    23    24    1
    12    24    25    1
    13    24    26    1
    14    24    27    1
    15    27    28    2
    16    27    29   am
    17    29    30    1
    18    29    31    1
    19     6     7   ar
    20     7     8   ar
    21     8     9   ar
    22     9    10   ar
    23    11    12    1
    24    12    13   ar
    25    13    14   ar
    26    14    15   ar
    27    15    16   ar
    28    18    19    1
    29    19    20    1
    30    19    21    1
    31    10     1   ar
    32    16    12   ar
    33     9     4   ar
@<TRIPOS>MOLECULE
*****
 31 33 0 0 0
SMALL
GASTEIGER

@<TRIPOS>ATOM
      1 C          63.4688   86.1571   12.6384 C.ar    1  UNL1       -0.0004
      2 C          64.1241   85.8950   13.9619 C.ar    1  UNL1       -0.0024
      3 C          64.5046   87.0420   14.8505 C.ar    1  UNL1       -0.0002
      4 C          64.2298   88.4510   14.4155 C.ar    1  UNL1        0.0030
      5 C          64.6103   89.5980   15.3042 C.ar    1  UNL1        0.0369
      6 C          64.3356   91.0070   14.8692 C.ar    1  UNL1        0.1386
      7 C          63.6802   91.2690   13.5455 C.ar    1  UNL1        0.0369
      8 C          63.2997   90.1220   12.6570 C.ar    1  UNL1        0.0031
      9 C          63.5745   88.7130   13.0919 C.ar    1  UNL1       -0.0001
     10 C          63.1940   87.5661   12.2034 C.ar    1  UNL1       -0.0024
     11 C          63.0883   85.0101   11.7497 C.3     1  UNL1        0.1240
     12 N          62.4301   85.2720   10.4275 N.ar    1  UNL1       -0.3045
     13 C          61.0856   85.9045   10.2219 C.ar    1  UNL1        0.0983
     14 C          60.8253   85.9708    8.7461 C.ar    1  UNL1        0.1193
     15 N          62.0089   85.3793    8.0397 N.ar    1  UNL1       -0.2223
     16 C          63.0007   84.9474    9.0788 C.ar    1  UNL1        0.1788
     17 C          64.5518   82.8666   11.6315 C.3     1  UNL1        0.0197
     18 C          63.3660   83.6012   12.1832 C.3     1  UNL1        0.0827
     19 N          62.4579   82.9269   13.1684 N.3     1  UNL1       -0.2696
     20 C          62.0563   83.6379   14.4267 C.3     1  UNL1        0.0897
     21 C          61.9516   81.5416   12.8954 C.3     1  UNL1        0.0897
     22 O          64.7160   92.1540   15.7578 O.3     1  UNL1       -0.4750
     23 C          66.1146   92.6954   15.7261 C.3     1  UNL1        0.2138
     24 C          66.9630   92.5105   14.5030 C.3     1  UNL1        0.1092
     25 C          66.4698   93.8201   13.9630 C.3     1  UNL1        0.0129
     26 C          67.4561   91.2009   15.0431 C.3     1  UNL1        0.0129
     27 C          67.8113   92.3255   13.2799 C.2     1  UNL1        0.2283
     28 O          69.2787   92.0475   13.4199 O.2     1  UNL1       -0.2748
     29 N          67.1923   92.4185   11.9167 N.am    1  UNL1       -0.2759
     30 C          68.0408   92.2336   10.6936 C.3     1  UNL1        0.1149
     31 C          65.7250   92.6965   11.7767 C.3     1  UNL1        0.1149
@<TRIPOS>BOND
     1    17    18    1
     2    18    11    1
     3    11     1    1
     4     1     2   ar
     5     2     3   ar
     6     3     4   ar
     7     4     5   ar
     8     5     6   ar
     9     6    22    1
    10    22    23    1
    11    23    24    1
    12    24    25    1
    13    24    26    1
    14    24    27    1
    15    27    28    2
    16    27    29   am
    17    29    30    1
    18    29    31    1
    19     6     7   ar
    20     7     8   ar
    21     8     9   ar
    22     9    10   ar
    23    11    12    1
    24    12    13   ar
    25    13    14   ar
    26    14    15   ar
    27    15    16   ar
    28    18    19    1
    29    19    20    1
    30    19    21    1
    31    10     1   ar
    32    16    12   ar
    33     9     4   ar
@<TRIPOS>MOLECULE
*****
 31 33 0 0 0
SMALL
GASTEIGER

@<TRIPOS>ATOM
      1 C          62.4552   86.1677   11.4432 C.ar    1  UNL1       -0.0004
      2 C          62.7118   87.6199   11.7173 C.ar    1  UNL1       -0.0024
      3 C          62.0651   88.6700   10.8635 C.ar    1  UNL1       -0.0002
      4 C          61.1617   88.2679    9.7356 C.ar    1  UNL1        0.0030
      5 C          60.5149   89.3180    8.8818 C.ar    1  UNL1        0.0369
      6 C          59.6115   88.9159    7.7539 C.ar    1  UNL1        0.1386
      7 C          59.3548   87.4636    7.4798 C.ar    1  UNL1        0.0369
      8 C          60.0016   86.4135    8.3336 C.ar    1  UNL1        0.0031
      9 C          60.9050   86.8156    9.4615 C.ar    1  UNL1       -0.0001
     10 C          61.5518   85.7656   10.3153 C.ar    1  UNL1       -0.0024
     11 C          63.1019   85.1176   12.2970 C.3     1  UNL1        0.1240
     12 N          63.3442   83.7449   11.7428 N.ar    1  UNL1       -0.3045
     13 C          62.5463   82.5140   12.0563 C.ar    1  UNL1        0.0983
     14 C          63.1358   81.3705   11.2851 C.ar    1  UNL1        0.1193
     15 N          64.2980   81.8946   10.4949 N.ar    1  UNL1       -0.2223
     16 C          64.4268   83.3621   10.7778 C.ar    1  UNL1        0.1788
     17 C          64.1334   86.7659   14.0201 C.3     1  UNL1        0.0197
     18 C          63.5065   85.4401   13.7049 C.3     1  UNL1        0.0827
     19 N          63.2841   84.4369   14.7977 N.3     1  UNL1       -0.2696
     20 C          64.3115   83.3766   15.0628 C.3     1  UNL1        0.0897
     21 C          62.0344   84.4939   15.6252 C.3     1  UNL1        0.0897
     22 O          58.9647   89.9660    6.9001 O.3     1  UNL1       -0.4750
     23 C          59.3460   90.0974    5.4553 C.3     1  UNL1        0.2138
     24 C          59.4589   91.4562    4.8301 C.3     1  UNL1        0.1092
     25 C          60.9533   91.3282    4.8215 C.3     1  UNL1        0.0129
     26 C          57.9644   91.5843    4.8386 C.3     1  UNL1        0.0129
     27 C          59.5717   92.8150    4.2048 C.2     1  UNL1        0.2283
     28 O          59.1130   94.0280    4.9588 O.2     1  UNL1       -0.2748
     29 N          60.1433   92.9609    2.8257 N.am    1  UNL1       -0.2759
     30 C          60.2561   94.3198    2.2005 C.3     1  UNL1        0.1149
     31 C          60.6020   91.7480    2.0718 C.3     1  UNL1        0.1149
@<TRIPOS>BOND
     1    17    18    1
     2    18    11    1
     3    11     1    1
     4     1     2   ar
     5     2     3   ar
     6     3     4   ar
     7     4     5   ar
     8     5     6   ar
     9     6    22    1
    10    22    23    1
    11    23    24    1
    12    24    25    1
    13    24    26    1
    14    24    27    1
    15    27    28    2
    16    27    29   am
    17    29    30    1
    18    29    31    1
    19     6     7   ar
    20     7     8   ar
    21     8     9   ar
    22     9    10   ar
    23    11    12    1
    24    12    13   ar
    25    13    14   ar
    26    14    15   ar
    27    15    16   ar
    28    18    19    1
    29    19    20    1
    30    19    21    1
    31    10     1   ar
    32    16    12   ar
    33     9     4   ar
