@<TRIPOS>MOLECULE
*****
 34 35 0 0 0
SMALL
GASTEIGER

@<TRIPOS>ATOM
      1 N          63.9323   89.6719   14.4284 N.3     1  UNL1       -0.2712
      2 C          64.4965   88.3091   14.1561 C.3     1  UNL1        0.0723
      3 C          64.2761   87.1962   15.1374 C.3     1  UNL1        0.0214
      4 C          63.4914   87.4462   16.3911 C.3     1  UNL1        0.0478
      5 C          62.9272   88.8091   16.6634 C.3     1  UNL1        0.0214
      6 C          63.1476   89.9219   15.6821 C.3     1  UNL1        0.0723
      7 C          62.8219   87.1923   17.7092 C.3     1  UNL1        0.1387
      8 O          62.0097   85.9474   17.9103 O.3     1  UNL1       -0.3819
      9 H          61.2296   85.9738   17.3344 H       1  UNL1        0.2104
     10 C          64.1527   90.7848   13.4471 C.3     1  UNL1        0.0937
     11 C          63.1761   91.0040   12.3300 C.3     1  UNL1        0.1082
     12 N          60.6051   88.3414   10.8980 N.am    1  UNL1       -0.2921
     13 C          61.8143   89.2205   11.0205 C.2     1  UNL1        0.3007
     14 O          62.8709   89.1953    9.9561 O.2     1  UNL1       -0.2528
     15 N          61.9669   90.1249   12.2075 N.am    1  UNL1       -0.2875
     16 H          59.9117   88.3579   11.5966 H       1  UNL1        0.1508
     17 H          61.2735   90.1414   12.9061 H       1  UNL1        0.1510
     18 C          59.8355   88.5616    8.9336 C.3     1  UNL1        0.0197
     19 C          60.4525   87.4370    9.7111 C.3     1  UNL1        0.0583
     20 C          61.0695   86.3124   10.4886 C.3     1  UNL1        0.0197
     21 C          60.2999   86.5326    8.5241 C.3     1  UNL1        0.0197
     22 C          63.8232   85.9951   16.5765 C.3     1  UNL1        0.0921
     23 N          63.9593   85.0983   15.3819 N.am    1  UNL1       -0.3008
     24 C          62.7411   84.4686   14.7741 C.2     1  UNL1        0.2459
     25 O          61.3868   84.7358   15.3609 O.2     1  UNL1       -0.2701
     26 H          64.8482   84.9230   14.9967 H       1  UNL1        0.1497
     27 C          62.8772   83.5718   13.5795 C.ar    1  UNL1        0.0550
     28 C          62.6156   82.1008   13.7123 C.ar    1  UNL1        0.0160
     29 C          62.7517   81.2040   12.5177 C.ar    1  UNL1        0.0587
     30 CL         62.4901   79.7328   12.6505 Cl      1  UNL1       -0.0822
     31 C          63.1494   81.7780   11.1902 C.ar    1  UNL1        0.0228
     32 C          63.4110   83.2492   11.0574 C.ar    1  UNL1        0.0587
     33 CL         63.8087   83.8232    9.7299 Cl      1  UNL1       -0.0822
     34 C          63.2749   84.1460   12.2520 C.ar    1  UNL1        0.0160
@<TRIPOS>BOND
     1    18    19    1
     2    19    20    1
     3    19    21    1
     4    19    12    1
     5    12    13   am
     6    13    14    2
     7    13    15   am
     8    15    11    1
     9    11    10    1
    10    10     1    1
    11     1     2    1
    12     2     3    1
    13     3     4    1
    14     4     7    1
    15     7     8    1
    16     4    22    1
    17    22    23    1
    18    23    24   am
    19    24    25    2
    20    24    27    1
    21    27    28   ar
    22    28    29   ar
    23    29    30    1
    24    29    31   ar
    25    31    32   ar
    26    32    33    1
    27    32    34   ar
    28     4     5    1
    29     5     6    1
    30     6     1    1
    31    34    27   ar
    32    12    16    1
    33    15    17    1
    34     8     9    1
    35    23    26    1
@<TRIPOS>MOLECULE
*****
 34 35 0 0 0
SMALL
GASTEIGER

@<TRIPOS>ATOM
      1 N          63.9319   89.6505   14.3734 N.3     1  UNL1       -0.2712
      2 C          64.4840   88.2797   14.1168 C.3     1  UNL1        0.0723
      3 C          64.2653   87.1836   15.1172 C.3     1  UNL1        0.0214
      4 C          63.4945   87.4584   16.3742 C.3     1  UNL1        0.0478
      5 C          62.9424   88.8292   16.6309 C.3     1  UNL1        0.0214
      6 C          63.1610   89.9253   15.6305 C.3     1  UNL1        0.0723
      7 C          62.8360   87.2295   17.7024 C.3     1  UNL1        0.1387
      8 O          62.0026   86.0023   17.9247 O.3     1  UNL1       -0.3819
      9 H          61.2164   86.0383   17.3578 H       1  UNL1        0.2104
     10 C          64.1505   90.7466   13.3730 C.3     1  UNL1        0.0937
     11 C          63.1164   91.0194   12.3214 C.3     1  UNL1        0.1082
     12 N          60.6125   88.3061   10.8657 N.am    1  UNL1       -0.2921
     13 C          61.8027   89.2092   10.9994 C.2     1  UNL1        0.3007
     14 O          62.8694   89.2053    9.9448 O.2     1  UNL1       -0.2528
     15 N          61.9262   90.1163   12.1877 N.am    1  UNL1       -0.2875
     16 H          59.9124   88.3087   11.5579 H       1  UNL1        0.1508
     17 H          61.2261   90.1189   12.8799 H       1  UNL1        0.1510
     18 C          61.1220   86.2872   10.4604 C.3     1  UNL1        0.0197
     19 C          60.4890   87.3991    9.6775 C.3     1  UNL1        0.0583
     20 C          59.8560   88.5109    8.8945 C.3     1  UNL1        0.0197
     21 C          60.3655   86.4920    8.4891 C.3     1  UNL1        0.0197
     22 C          63.8180   86.0080   16.5788 C.3     1  UNL1        0.0921
     23 N          63.9520   85.0954   15.3961 N.am    1  UNL1       -0.3008
     24 C          62.7331   84.4548   14.8011 C.2     1  UNL1        0.2459
     25 O          61.3802   84.7270   15.3889 O.2     1  UNL1       -0.2701
     26 H          64.8399   84.9168   15.0102 H       1  UNL1        0.1497
     27 C          62.8671   83.5422   13.6183 C.ar    1  UNL1        0.0550
     28 C          63.2679   84.0978   12.2838 C.ar    1  UNL1        0.0160
     29 C          63.4018   83.1851   11.1010 C.ar    1  UNL1        0.0587
     30 CL         63.8026   83.7408    9.7665 Cl      1  UNL1       -0.0822
     31 C          63.1351   81.7169   11.2525 C.ar    1  UNL1        0.0228
     32 C          62.7343   81.1612   12.5870 C.ar    1  UNL1        0.0587
     33 CL         62.4675   79.6929   12.7385 Cl      1  UNL1       -0.0822
     34 C          62.6003   82.0739   13.7698 C.ar    1  UNL1        0.0160
@<TRIPOS>BOND
     1    18    19    1
     2    19    20    1
     3    19    21    1
     4    19    12    1
     5    12    13   am
     6    13    14    2
     7    13    15   am
     8    15    11    1
     9    11    10    1
    10    10     1    1
    11     1     2    1
    12     2     3    1
    13     3     4    1
    14     4     7    1
    15     7     8    1
    16     4    22    1
    17    22    23    1
    18    23    24   am
    19    24    25    2
    20    24    27    1
    21    27    28   ar
    22    28    29   ar
    23    29    30    1
    24    29    31   ar
    25    31    32   ar
    26    32    33    1
    27    32    34   ar
    28     4     5    1
    29     5     6    1
    30     6     1    1
    31    34    27   ar
    32    12    16    1
    33    15    17    1
    34     8     9    1
    35    23    26    1
@<TRIPOS>MOLECULE
*****
 34 35 0 0 0
SMALL
GASTEIGER

@<TRIPOS>ATOM
      1 N          63.5651   86.9806   13.2089 N.3     1  UNL1       -0.2712
      2 C          63.1343   88.1124   12.3237 C.3     1  UNL1        0.0723
      3 C          63.4029   89.5299   12.7344 C.3     1  UNL1        0.0214
      4 C          64.1024   89.8156   14.0302 C.3     1  UNL1        0.0478
      5 C          64.5332   88.6838   14.9153 C.3     1  UNL1        0.0214
      6 C          64.2645   87.2663   14.5046 C.3     1  UNL1        0.0723
      7 C          64.7277   90.5874   15.1542 C.3     1  UNL1        0.1387
      8 O          64.1046   91.8695   15.6212 O.3     1  UNL1       -0.3819
      9 H          64.1633   92.5331   14.9162 H       1  UNL1        0.2104
     10 C          63.2964   85.5632   12.7982 C.3     1  UNL1        0.0937
     11 C          62.5241   85.2792   11.5441 C.3     1  UNL1        0.1082
     12 N          59.7883   87.4586    9.6691 N.am    1  UNL1       -0.2921
     13 C          61.0621   86.7178    9.9493 C.2     1  UNL1        0.3007
     14 O          62.1477   86.6746    8.9152 O.2     1  UNL1       -0.2528
     15 N          61.2502   86.0201   11.2639 N.am    1  UNL1       -0.2875
     16 H          59.0757   87.4869   10.3478 H       1  UNL1        0.1508
     17 H          60.5377   86.0484   11.9426 H       1  UNL1        0.1510
     18 C          60.1695   89.4141    8.9407 C.3     1  UNL1        0.0197
     19 C          59.6001   88.1563    8.3546 C.3     1  UNL1        0.0583
     20 C          59.0306   86.8984    7.7685 C.3     1  UNL1        0.0197
     21 C          59.4118   88.8539    7.0401 C.3     1  UNL1        0.0197
     22 C          63.8887   91.2154   13.5354 C.3     1  UNL1        0.0921
     23 N          64.6821   91.7284   12.3704 N.am    1  UNL1       -0.3008
     24 C          65.5990   92.9025   12.5461 C.2     1  UNL1        0.2459
     25 O          65.7224   93.5635   13.8869 O.2     1  UNL1       -0.2701
     26 H          64.6011   91.2945   11.4904 H       1  UNL1        0.1497
     27 C          66.3925   93.4155   11.3812 C.ar    1  UNL1        0.0550
     28 C          66.3459   94.8718   11.0251 C.ar    1  UNL1        0.0160
     29 C          67.1393   95.3848    9.8601 C.ar    1  UNL1        0.0587
     30 CL         67.0927   96.8413    9.5040 Cl      1  UNL1       -0.0822
     31 C          67.9794   94.4416    9.0511 C.ar    1  UNL1        0.0228
     32 C          68.0260   92.9851    9.4072 C.ar    1  UNL1        0.0587
     33 CL         68.8660   92.0418    8.5982 Cl      1  UNL1       -0.0822
     34 C          67.2325   92.4721   10.5722 C.ar    1  UNL1        0.0160
@<TRIPOS>BOND
     1    18    19    1
     2    19    20    1
     3    19    21    1
     4    19    12    1
     5    12    13   am
     6    13    14    2
     7    13    15   am
     8    15    11    1
     9    11    10    1
    10    10     1    1
    11     1     2    1
    12     2     3    1
    13     3     4    1
    14     4     7    1
    15     7     8    1
    16     4    22    1
    17    22    23    1
    18    23    24   am
    19    24    25    2
    20    24    27    1
    21    27    28   ar
    22    28    29   ar
    23    29    30    1
    24    29    31   ar
    25    31    32   ar
    26    32    33    1
    27    32    34   ar
    28     4     5    1
    29     5     6    1
    30     6     1    1
    31    34    27   ar
    32    12    16    1
    33    15    17    1
    34     8     9    1
    35    23    26    1
@<TRIPOS>MOLECULE
*****
 34 35 0 0 0
SMALL
GASTEIGER

@<TRIPOS>ATOM
      1 N          63.9791   89.8749   15.0965 N.3     1  UNL1       -0.2712
      2 C          64.5468   88.6517   14.4398 C.3     1  UNL1        0.0723
      3 C          64.3140   87.2991   15.0450 C.3     1  UNL1        0.0214
      4 C          63.5136   87.1697   16.3069 C.3     1  UNL1        0.0478
      5 C          62.9459   88.3930   16.9636 C.3     1  UNL1        0.0214
      6 C          63.1787   89.7456   16.3584 C.3     1  UNL1        0.0723
      7 C          62.8275   86.5395   17.4826 C.3     1  UNL1        0.1387
      8 O          61.3836   86.1449   17.3854 O.3     1  UNL1       -0.3819
      9 H          60.8371   86.9401   17.2856 H       1  UNL1        0.2104
     10 C          64.2119   91.2275   14.4913 C.3     1  UNL1        0.0937
     11 C          64.7261   91.3424   13.0870 C.3     1  UNL1        0.1082
     12 N          67.1604   93.8097   11.1539 N.am    1  UNL1       -0.2921
     13 C          65.9928   92.9174   11.4544 C.2     1  UNL1        0.3007
     14 O          64.9242   92.7076   10.4229 O.2     1  UNL1       -0.2528
     15 N          65.8938   92.2348   12.7865 N.am    1  UNL1       -0.2875
     16 H          67.8618   93.9474   11.8309 H       1  UNL1        0.1508
     17 H          66.5952   92.3725   13.4635 H       1  UNL1        0.1510
     18 C          66.5209   95.6756   10.3734 C.3     1  UNL1        0.0197
     19 C          67.2594   94.4923    9.8219 C.3     1  UNL1        0.0583
     20 C          67.9980   93.3090    9.2704 C.3     1  UNL1        0.0197
     21 C          67.3585   95.1749    8.4898 C.3     1  UNL1        0.0197
     22 C          63.8430   85.7275   16.0584 C.3     1  UNL1        0.0921
     23 N          63.6333   85.1341   14.6969 N.am    1  UNL1       -0.3008
     24 C          63.8337   83.6634   14.4808 C.2     1  UNL1        0.2459
     25 O          64.2438   82.7861   15.6262 O.2     1  UNL1       -0.2701
     26 H          63.3642   85.7099   13.9451 H       1  UNL1        0.1497
     27 C          63.6240   83.0699   13.1192 C.ar    1  UNL1        0.0550
     28 C          63.2870   81.6150   12.9790 C.ar    1  UNL1        0.0160
     29 C          63.0773   81.0216   11.6175 C.ar    1  UNL1        0.0587
     30 CL         62.7403   79.5666   11.4773 Cl      1  UNL1       -0.0822
     31 C          63.2046   81.8830   10.3961 C.ar    1  UNL1        0.0228
     32 C          63.5416   83.3380   10.5363 C.ar    1  UNL1        0.0587
     33 CL         63.6688   84.1994    9.3150 Cl      1  UNL1       -0.0822
     34 C          63.7513   83.9314   11.8979 C.ar    1  UNL1        0.0160
@<TRIPOS>BOND
     1    18    19    1
     2    19    20    1
     3    19    21    1
     4    19    12    1
     5    12    13   am
     6    13    14    2
     7    13    15   am
     8    15    11    1
     9    11    10    1
    10    10     1    1
    11     1     2    1
    12     2     3    1
    13     3     4    1
    14     4     7    1
    15     7     8    1
    16     4    22    1
    17    22    23    1
    18    23    24   am
    19    24    25    2
    20    24    27    1
    21    27    28   ar
    22    28    29   ar
    23    29    30    1
    24    29    31   ar
    25    31    32   ar
    26    32    33    1
    27    32    34   ar
    28     4     5    1
    29     5     6    1
    30     6     1    1
    31    34    27   ar
    32    12    16    1
    33    15    17    1
    34     8     9    1
    35    23    26    1
@<TRIPOS>MOLECULE
*****
 34 35 0 0 0
SMALL
GASTEIGER

@<TRIPOS>ATOM
      1 N          64.1349   83.3227   13.5227 N.3     1  UNL1       -0.2712
      2 C          64.8131   84.6577   13.6096 C.3     1  UNL1        0.0723
      3 C          64.4049   85.6389   14.6682 C.3     1  UNL1        0.0214
      4 C          63.3184   85.2851   15.6399 C.3     1  UNL1        0.0478
      5 C          62.6402   83.9500   15.5531 C.3     1  UNL1        0.0214
      6 C          63.0484   82.9688   14.4945 C.3     1  UNL1        0.0723
      7 C          62.3508   85.4100   16.7793 C.3     1  UNL1        0.1387
      8 O          61.7456   86.7429   17.1065 O.3     1  UNL1       -0.3819
      9 H          62.4395   87.3458   17.4161 H       1  UNL1        0.2104
     10 C          64.5431   82.3414   12.4642 C.3     1  UNL1        0.0937
     11 C          63.8043   82.2950   11.1596 C.3     1  UNL1        0.1082
     12 N          62.7206   85.7699    9.5782 N.am    1  UNL1       -0.2921
     13 C          62.7436   84.5644   10.4705 C.2     1  UNL1        0.3007
     14 O          61.7287   84.4227   11.5659 O.2     1  UNL1       -0.2528
     15 N          63.7814   83.5005   10.2673 N.am    1  UNL1       -0.2875
     16 H          63.3867   85.8629    8.8592 H       1  UNL1        0.1508
     17 H          64.4475   83.5936    9.5483 H       1  UNL1        0.1510
     18 C          60.8883   86.2771    8.6373 C.3     1  UNL1        0.0197
     19 C          61.6829   86.8338    9.7813 C.3     1  UNL1        0.0583
     20 C          62.4774   87.3904   10.9253 C.3     1  UNL1        0.0197
     21 C          60.6451   87.8976    9.9845 C.3     1  UNL1        0.0197
     22 C          63.6607   86.6635   16.1224 C.3     1  UNL1        0.0921
     23 N          64.1615   87.6942   15.1545 N.am    1  UNL1       -0.3008
     24 C          63.6171   89.0912   15.1980 C.2     1  UNL1        0.2459
     25 O          62.5718   89.4575   16.2095 O.2     1  UNL1       -0.2701
     26 H          64.8475   87.4537   14.4906 H       1  UNL1        0.1497
     27 C          64.1178   90.1218   14.2301 C.ar    1  UNL1        0.0550
     28 C          63.5143   90.2203   12.8604 C.ar    1  UNL1        0.0160
     29 C          64.0150   91.2509   11.8925 C.ar    1  UNL1        0.0587
     30 CL         63.4114   91.3494   10.5227 Cl      1  UNL1       -0.0822
     31 C          65.1194   92.1832   12.2941 C.ar    1  UNL1        0.0228
     32 C          65.7230   92.0847   13.6639 C.ar    1  UNL1        0.0587
     33 CL         66.8273   93.0169   14.0655 Cl      1  UNL1       -0.0822
     34 C          65.2222   91.0541   14.6318 C.ar    1  UNL1        0.0160
@<TRIPOS>BOND
     1    18    19    1
     2    19    20    1
     3    19    21    1
     4    19    12    1
     5    12    13   am
     6    13    14    2
     7    13    15   am
     8    15    11    1
     9    11    10    1
    10    10     1    1
    11     1     2    1
    12     2     3    1
    13     3     4    1
    14     4     7    1
    15     7     8    1
    16     4    22    1
    17    22    23    1
    18    23    24   am
    19    24    25    2
    20    24    27    1
    21    27    28   ar
    22    28    29   ar
    23    29    30    1
    24    29    31   ar
    25    31    32   ar
    26    32    33    1
    27    32    34   ar
    28     4     5    1
    29     5     6    1
    30     6     1    1
    31    34    27   ar
    32    12    16    1
    33    15    17    1
    34     8     9    1
    35    23    26    1
@<TRIPOS>MOLECULE
*****
 34 35 0 0 0
SMALL
GASTEIGER

@<TRIPOS>ATOM
      1 N          64.1085   83.2994   13.5509 N.3     1  UNL1       -0.2712
      2 C          64.7986   84.6288   13.6320 C.3     1  UNL1        0.0723
      3 C          64.3978   85.6188   14.6851 C.3     1  UNL1        0.0214
      4 C          63.3070   85.2795   15.6572 C.3     1  UNL1        0.0478
      5 C          62.6169   83.9502   15.5761 C.3     1  UNL1        0.0214
      6 C          63.0177   82.9601   14.5229 C.3     1  UNL1        0.0723
      7 C          62.3391   85.4187   16.7947 C.3     1  UNL1        0.1387
      8 O          61.7696   86.7642   17.1345 O.3     1  UNL1       -0.3819
      9 H          62.4787   87.3444   17.4529 H       1  UNL1        0.2104
     10 C          64.5092   82.3094   12.4977 C.3     1  UNL1        0.0937
     11 C          63.7634   82.2543   11.1975 C.3     1  UNL1        0.1082
     12 N          62.6879   85.7356    9.6246 N.am    1  UNL1       -0.2921
     13 C          62.7177   84.5352   10.5236 C.2     1  UNL1        0.3007
     14 O          61.7318   84.4154   11.6476 O.2     1  UNL1       -0.2528
     15 N          63.7335   83.4546   10.2985 N.am    1  UNL1       -0.2875
     16 H          63.3350   85.8142    8.8868 H       1  UNL1        0.1508
     17 H          64.3806   83.5333    9.5607 H       1  UNL1        0.1510
     18 C          60.8405   86.2679    8.7281 C.3     1  UNL1        0.0197
     19 C          61.6722   86.8161    9.8496 C.3     1  UNL1        0.0583
     20 C          62.5038   87.3643   10.9711 C.3     1  UNL1        0.0197
     21 C          60.6564   87.8967   10.0747 C.3     1  UNL1        0.0197
     22 C          63.6609   86.6573   16.1334 C.3     1  UNL1        0.0921
     23 N          64.1579   87.6831   15.1584 N.am    1  UNL1       -0.3008
     24 C          63.6070   89.0778   15.1911 C.2     1  UNL1        0.2459
     25 O          62.5589   89.4467   16.1989 O.2     1  UNL1       -0.2701
     26 H          64.8458   87.4410   14.4970 H       1  UNL1        0.1497
     27 C          64.1040   90.1037   14.2162 C.ar    1  UNL1        0.0550
     28 C          65.2193   91.0287   14.6041 C.ar    1  UNL1        0.0160
     29 C          65.7162   92.0545   13.6292 C.ar    1  UNL1        0.0587
     30 CL         66.8316   92.9796   14.0172 Cl      1  UNL1       -0.0822
     31 C          65.0980   92.1555   12.2663 C.ar    1  UNL1        0.0228
     32 C          63.9827   91.2304   11.8783 C.ar    1  UNL1        0.0587
     33 CL         63.3645   91.3314   10.5154 Cl      1  UNL1       -0.0822
     34 C          63.4857   90.2046   12.8532 C.ar    1  UNL1        0.0160
@<TRIPOS>BOND
     1    18    19    1
     2    19    20    1
     3    19    21    1
     4    19    12    1
     5    12    13   am
     6    13    14    2
     7    13    15   am
     8    15    11    1
     9    11    10    1
    10    10     1    1
    11     1     2    1
    12     2     3    1
    13     3     4    1
    14     4     7    1
    15     7     8    1
    16     4    22    1
    17    22    23    1
    18    23    24   am
    19    24    25    2
    20    24    27    1
    21    27    28   ar
    22    28    29   ar
    23    29    30    1
    24    29    31   ar
    25    31    32   ar
    26    32    33    1
    27    32    34   ar
    28     4     5    1
    29     5     6    1
    30     6     1    1
    31    34    27   ar
    32    12    16    1
    33    15    17    1
    34     8     9    1
    35    23    26    1
@<TRIPOS>MOLECULE
*****
 34 35 0 0 0
SMALL
GASTEIGER

@<TRIPOS>ATOM
      1 N          62.7968   85.0147    9.4665 N.3     1  UNL1       -0.2712
      2 C          62.5537   85.7633   10.7434 C.3     1  UNL1        0.0723
      3 C          61.6558   86.9650   10.7489 C.3     1  UNL1        0.0214
      4 C          61.0012   87.4179    9.4777 C.3     1  UNL1        0.0478
      5 C          61.2443   86.6693    8.2008 C.3     1  UNL1        0.0214
      6 C          62.1422   85.4677    8.1952 C.3     1  UNL1        0.0723
      7 C          60.1607   88.2287    8.5363 C.3     1  UNL1        0.1387
      8 O          60.1805   89.7266    8.6136 O.3     1  UNL1       -0.3819
      9 H          59.7990   90.0118    9.4586 H       1  UNL1        0.2104
     10 C          63.6947   83.8131    9.4609 C.3     1  UNL1        0.0937
     11 C          63.8478   82.9855   10.7025 C.3     1  UNL1        0.1082
     12 N          64.8103   84.6132   14.1917 N.am    1  UNL1       -0.2921
     13 C          63.9906   84.1004   13.0449 C.2     1  UNL1        0.3007
     14 O          62.4941   84.1897   13.0937 O.2     1  UNL1       -0.2528
     15 N          64.6675   83.4983   11.8493 N.am    1  UNL1       -0.2875
     16 H          65.7926   84.5546   14.1597 H       1  UNL1        0.1508
     17 H          65.6498   83.4397   11.8173 H       1  UNL1        0.1510
     18 C          63.7776   83.8429   15.8769 C.3     1  UNL1        0.0197
     19 C          64.1335   85.2153   15.3872 C.3     1  UNL1        0.0583
     20 C          64.4895   86.5877   14.8976 C.3     1  UNL1        0.0197
     21 C          63.4567   85.8175   16.5828 C.3     1  UNL1        0.0197
     22 C          60.4661   88.4482   10.4276 C.3     1  UNL1        0.0921
     23 N          61.3010   88.9047   11.5871 N.am    1  UNL1       -0.3008
     24 C          62.3790   89.9266   11.3788 C.2     1  UNL1        0.2459
     25 O          62.6221   90.4921   10.0109 O.2     1  UNL1       -0.2701
     26 H          61.1414   88.5336   12.4849 H       1  UNL1        0.1497
     27 C          63.2140   90.3832   12.5383 C.ar    1  UNL1        0.0550
     28 C          64.3524   91.3339   12.3144 C.ar    1  UNL1        0.0160
     29 C          65.1873   91.7904   13.4739 C.ar    1  UNL1        0.0587
     30 CL         66.3258   92.7411   13.2500 Cl      1  UNL1       -0.0822
     31 C          64.8839   91.2963   14.8573 C.ar    1  UNL1        0.0228
     32 C          63.7454   90.3455   15.0811 C.ar    1  UNL1        0.0587
     33 CL         63.4419   89.8514   16.4645 Cl      1  UNL1       -0.0822
     34 C          62.9105   89.8890   13.9217 C.ar    1  UNL1        0.0160
@<TRIPOS>BOND
     1    18    19    1
     2    19    20    1
     3    19    21    1
     4    19    12    1
     5    12    13   am
     6    13    14    2
     7    13    15   am
     8    15    11    1
     9    11    10    1
    10    10     1    1
    11     1     2    1
    12     2     3    1
    13     3     4    1
    14     4     7    1
    15     7     8    1
    16     4    22    1
    17    22    23    1
    18    23    24   am
    19    24    25    2
    20    24    27    1
    21    27    28   ar
    22    28    29   ar
    23    29    30    1
    24    29    31   ar
    25    31    32   ar
    26    32    33    1
    27    32    34   ar
    28     4     5    1
    29     5     6    1
    30     6     1    1
    31    34    27   ar
    32    12    16    1
    33    15    17    1
    34     8     9    1
    35    23    26    1
@<TRIPOS>MOLECULE
*****
 34 35 0 0 0
SMALL
GASTEIGER

@<TRIPOS>ATOM
      1 N          61.5288   85.9062    8.7871 N.3     1  UNL1       -0.2712
      2 C          61.3012   85.9479   10.2692 C.3     1  UNL1        0.0723
      3 C          62.1602   85.1255   11.1833 C.3     1  UNL1        0.0214
      4 C          63.2467   84.2612   10.6155 C.3     1  UNL1        0.0478
      5 C          63.4743   84.2195    9.1335 C.3     1  UNL1        0.0214
      6 C          62.6154   85.0420    8.2193 C.3     1  UNL1        0.0723
      7 C          64.3925   83.2949   10.5551 C.3     1  UNL1        0.1387
      8 O          65.0113   82.7852   11.8228 O.3     1  UNL1       -0.3819
      9 H          65.4417   83.5183   12.2900 H       1  UNL1        0.2104
     10 C          60.6699   86.7287    7.8730 C.3     1  UNL1        0.0937
     11 C          59.8074   87.8199    8.4345 C.3     1  UNL1        0.1082
     12 N          61.8908   90.8413    9.9447 N.am    1  UNL1       -0.2921
     13 C          61.3275   89.4646    9.7515 C.2     1  UNL1        0.3007
     14 O          61.7210   88.3558   10.6820 O.2     1  UNL1       -0.2528
     15 N          60.3707   89.1966    8.6277 N.am    1  UNL1       -0.2875
     16 H          61.6326   91.5690    9.3340 H       1  UNL1        0.1508
     17 H          60.1125   89.9243    8.0170 H       1  UNL1        0.1510
     18 C          61.8370   90.5965   12.0511 C.3     1  UNL1        0.0197
     19 C          62.8476   91.1092   11.0684 C.3     1  UNL1        0.0583
     20 C          63.8582   91.6220   10.0857 C.3     1  UNL1        0.0197
     21 C          63.8044   91.3773   12.1921 C.3     1  UNL1        0.0197
     22 C          63.4170   83.9674   12.0766 C.3     1  UNL1        0.0921
     23 N          63.1111   85.0253   13.0950 N.am    1  UNL1       -0.3008
     24 C          64.1271   85.3750   14.1416 C.2     1  UNL1        0.2459
     25 O          65.4490   84.6667   14.1698 O.2     1  UNL1       -0.2701
     26 H          62.2435   85.4902   13.0765 H       1  UNL1        0.1497
     27 C          63.8212   86.4329   15.1600 C.ar    1  UNL1        0.0550
     28 C          63.9961   87.8816   14.8124 C.ar    1  UNL1        0.0160
     29 C          63.6902   88.9395   15.8308 C.ar    1  UNL1        0.0587
     30 CL         63.8651   90.3882   15.4831 Cl      1  UNL1       -0.0822
     31 C          63.2094   88.5489   17.1969 C.ar    1  UNL1        0.0228
     32 C          63.0345   87.1002   17.5445 C.ar    1  UNL1        0.0587
     33 CL         62.5538   86.7096   18.9106 Cl      1  UNL1       -0.0822
     34 C          63.3404   86.0422   16.5261 C.ar    1  UNL1        0.0160
@<TRIPOS>BOND
     1    18    19    1
     2    19    20    1
     3    19    21    1
     4    19    12    1
     5    12    13   am
     6    13    14    2
     7    13    15   am
     8    15    11    1
     9    11    10    1
    10    10     1    1
    11     1     2    1
    12     2     3    1
    13     3     4    1
    14     4     7    1
    15     7     8    1
    16     4    22    1
    17    22    23    1
    18    23    24   am
    19    24    25    2
    20    24    27    1
    21    27    28   ar
    22    28    29   ar
    23    29    30    1
    24    29    31   ar
    25    31    32   ar
    26    32    33    1
    27    32    34   ar
    28     4     5    1
    29     5     6    1
    30     6     1    1
    31    34    27   ar
    32    12    16    1
    33    15    17    1
    34     8     9    1
    35    23    26    1
@<TRIPOS>MOLECULE
*****
 34 35 0 0 0
SMALL
GASTEIGER

@<TRIPOS>ATOM
      1 N          61.4254   92.3315    3.1889 N.3     1  UNL1       -0.2712
      2 C          61.6382   91.1520    4.0908 C.3     1  UNL1        0.0723
      3 C          60.5023   90.6242    4.9160 C.3     1  UNL1        0.0214
      4 C          59.1535   91.2759    4.8393 C.3     1  UNL1        0.0478
      5 C          58.9406   92.4555    3.9375 C.3     1  UNL1        0.0214
      6 C          60.0766   92.9832    3.1122 C.3     1  UNL1        0.0723
      7 C          57.7036   91.5513    5.1083 C.3     1  UNL1        0.1387
      8 O          56.8044   90.4454    5.5756 O.3     1  UNL1       -0.3819
      9 H          56.7161   89.7820    4.8734 H       1  UNL1        0.2104
     10 C          62.5614   92.8593    2.3637 C.3     1  UNL1        0.0937
     11 C          62.3623   93.1353    0.9028 C.3     1  UNL1        0.1082
     12 N          59.2098   92.2551   -1.3416 N.am    1  UNL1       -0.2921
     13 C          60.2166   93.0454   -0.5594 C.2     1  UNL1        0.3007
     14 O          60.0844   94.5360   -0.4572 O.2     1  UNL1       -0.2528
     15 N          61.3555   92.3450    0.1206 N.am    1  UNL1       -0.2875
     16 H          59.2966   91.2767   -1.4087 H       1  UNL1        0.1508
     17 H          61.4423   91.3666    0.0535 H       1  UNL1        0.1510
     18 C          58.9217   93.1553   -3.2406 C.3     1  UNL1        0.0197
     19 C          58.0709   92.9554   -2.0216 C.3     1  UNL1        0.0583
     20 C          57.2201   92.7554   -0.8025 C.3     1  UNL1        0.0197
     21 C          56.9319   93.6557   -2.7015 C.3     1  UNL1        0.0197
     22 C          58.8628   90.1920    5.8347 C.3     1  UNL1        0.0921
     23 N          59.7994   89.9569    6.9824 N.am    1  UNL1       -0.3008
     24 C          59.6362   88.7420    7.8470 C.2     1  UNL1        0.2459
     25 O          58.5362   87.7623    7.5637 O.2     1  UNL1       -0.2701
     26 H          60.5214   90.5999    7.1683 H       1  UNL1        0.1497
     27 C          60.5728   88.5069    8.9947 C.ar    1  UNL1        0.0550
     28 C          60.7218   87.1302    9.5712 C.ar    1  UNL1        0.0160
     29 C          61.6584   86.8950   10.7190 C.ar    1  UNL1        0.0587
     30 CL         61.8073   85.5182   11.2955 Cl      1  UNL1       -0.0822
     31 C          62.4461   88.0365   11.2903 C.ar    1  UNL1        0.0228
     32 C          62.2971   89.4133   10.7137 C.ar    1  UNL1        0.0587
     33 CL         63.0849   90.5548   11.2850 Cl      1  UNL1       -0.0822
     34 C          61.3605   89.6485    9.5660 C.ar    1  UNL1        0.0160
@<TRIPOS>BOND
     1    18    19    1
     2    19    20    1
     3    19    21    1
     4    19    12    1
     5    12    13   am
     6    13    14    2
     7    13    15   am
     8    15    11    1
     9    11    10    1
    10    10     1    1
    11     1     2    1
    12     2     3    1
    13     3     4    1
    14     4     7    1
    15     7     8    1
    16     4    22    1
    17    22    23    1
    18    23    24   am
    19    24    25    2
    20    24    27    1
    21    27    28   ar
    22    28    29   ar
    23    29    30    1
    24    29    31   ar
    25    31    32   ar
    26    32    33    1
    27    32    34   ar
    28     4     5    1
    29     5     6    1
    30     6     1    1
    31    34    27   ar
    32    12    16    1
    33    15    17    1
    34     8     9    1
    35    23    26    1
