@<TRIPOS>MOLECULE
*****
 63 69 0 0 0
SMALL
GASTEIGER

@<TRIPOS>ATOM
      1 C          60.4861   90.9717    5.4597 C.ar    1  UNL1       -0.0000
      2 C          61.5880   91.2604    4.4837 C.ar    1  UNL1       -0.0000
      3 C          61.3624   92.2323    3.3637 C.ar    1  UNL1       -0.0003
      4 C          60.0348   92.9155    3.2195 C.ar    1  UNL1       -0.0035
      5 C          58.9329   92.6268    4.1954 C.ar    1  UNL1       -0.0003
      6 C          59.1585   91.6549    5.3155 C.ar    1  UNL1       -0.0000
      7 C          59.8093   93.8874    2.0994 C.2     1  UNL1       -0.0137
      8 C          59.6952   95.3543    2.3909 C.2     1  UNL1        0.0001
      9 C          59.4696   96.3261    1.2708 C.2     1  UNL1        0.0498
     10 C          59.3581   95.8310   -0.1407 C.2     1  UNL1        0.2318
     11 N          59.1377   96.5462   -1.4408 N.2     1  UNL1       -0.0334
     12 C          59.1156   95.5212   -2.5357 C.2     1  UNL1        0.3691
     13 N          59.3223   94.1725   -1.9123 N.2     1  UNL1       -0.0373
     14 C          59.4722   94.3641   -0.4322 C.2     1  UNL1        0.2175
     15 C          59.6977   93.3922    0.6879 C.3     1  UNL1        0.1040
     16 C          58.9210   95.7964   -3.9974 C.3     1  UNL1        0.1878
     17 C          59.9767   96.2647   -4.9545 C.3     1  UNL1        0.0344
     18 C          59.3446   96.4094   -6.3072 C.3     1  UNL1        0.0221
     19 C          60.0372   96.8547   -7.5609 C.3     1  UNL1        0.0018
     20 C          57.8984   96.0304   -6.1859 C.3     1  UNL1        0.0940
     21 N          57.6366   95.6515   -4.7583 N.am    1  UNL1       -0.2691
     22 C          56.3212   95.2060   -4.1913 C.2     1  UNL1        0.2440
     23 O          56.2109   94.8581   -2.7364 O.2     1  UNL1       -0.2731
     24 C          55.1162   95.1085   -5.0793 C.3     1  UNL1        0.1512
     25 N          55.1202   94.1690   -6.2486 N.am    1  UNL1       -0.2640
     26 C          55.6534   92.7760   -6.0895 C.2     1  UNL1        0.4021
     27 O          56.1825   92.3226   -4.7612 O.2     1  UNL1       -0.2264
     28 H          54.7729   94.4666   -7.1204 H       1  UNL1        0.1532
     29 O          55.6574   91.8365   -7.2588 O.3     1  UNL1       -0.4306
     30 C          54.6417   90.7357   -7.3399 C.3     1  UNL1        0.2573
     31 C          53.9072   95.9506   -4.7979 C.3     1  UNL1        0.0270
     32 C          52.8705   96.1542   -5.8628 C.3     1  UNL1        0.0022
     33 C          53.7347   96.5892   -3.4516 C.3     1  UNL1        0.0022
     34 C          61.1630   88.0560    8.8199 C.ar    1  UNL1        0.0192
     35 C          60.3101   87.6663    7.6490 C.ar    1  UNL1        0.0015
     36 C          60.0845   88.6382    6.5290 C.ar    1  UNL1        0.0000
     37 C          60.7117   89.9998    6.5797 C.ar    1  UNL1        0.0000
     38 C          61.5645   90.3896    7.7505 C.ar    1  UNL1        0.0000
     39 C          61.7902   89.4177    8.8706 C.ar    1  UNL1        0.0015
     40 C          62.2880   86.0217   11.9280 C.ar    1  UNL1        0.1353
     41 N          62.4147   87.2137   11.0263 N.ar    1  UNL1       -0.2295
     42 C          61.3886   87.0842    9.9399 C.ar    1  UNL1        0.0996
     43 C          60.6277   85.8121   10.1702 C.ar    1  UNL1        0.0927
     44 N          61.1836   85.1555   11.3989 N.ar    1  UNL1       -0.3383
     45 H          60.8773   84.3053   11.7895 H       1  UNL1        0.1672
     46 C          63.5702   88.2611   13.9257 C.2     1  UNL1        0.2439
     47 O          62.7825   88.8386   12.7872 O.2     1  UNL1       -0.2731
     48 N          63.7091   86.7739   14.0634 N.am    1  UNL1       -0.2730
     49 C          64.4617   86.0550   15.1435 C.3     1  UNL1        0.0938
     50 C          64.3375   84.5813   14.8929 C.3     1  UNL1        0.0220
     51 C          64.9374   83.4909   15.7303 C.3     1  UNL1        0.0018
     52 C          63.5081   84.3895   13.6578 C.3     1  UNL1        0.0293
     53 C          63.1198   85.7446   13.1452 C.3     1  UNL1        0.1319
     54 C          64.2190   89.1709   14.9264 C.3     1  UNL1        0.1512
     55 C          65.5089   91.1831   13.9082 C.2     1  UNL1        0.4021
     56 O          64.2070   91.8390   13.5551 O.2     1  UNL1       -0.2264
     57 N          65.5150   89.8491   14.5938 N.am    1  UNL1       -0.2640
     58 H          66.3695   89.4186   14.8256 H       1  UNL1        0.1532
     59 C          67.8841   91.9663   14.6121 C.3     1  UNL1        0.2573
     60 O          66.8049   91.8613   13.5756 O.3     1  UNL1       -0.4306
     61 C          63.5719   89.4025   16.2597 C.3     1  UNL1        0.0270
     62 C          63.0113   88.2455   17.0323 C.3     1  UNL1        0.0022
     63 C          63.4854   90.7911   16.8203 C.3     1  UNL1        0.0022
@<TRIPOS>BOND
     1    59    60    1
     2    60    55    1
     3    55    56    2
     4    55    57   am
     5    54    57    1
     6    54    46    1
     7    46    47    2
     8    46    48   am
     9    48    49    1
    10    49    50    1
    11    50    51    1
    12    50    52    1
    13    52    53    1
    14    53    40    1
    15    40    41   ar
    16    41    42   ar
    17    42    34    1
    18    34    35   ar
    19    35    36   ar
    20    36    37   ar
    21    37     1    1
    22     1     2   ar
    23     2     3   ar
    24     3     4   ar
    25     4     7    1
    26     7     8    2
    27     8     9    1
    28     9    10    2
    29    10    11    1
    30    11    12    2
    31    16    12    1
    32    16    17    1
    33    17    18    1
    34    18    19    1
    35    18    20    1
    36    20    21    1
    37    21    22   am
    38    22    23    2
    39    22    24    1
    40    24    25    1
    41    25    26   am
    42    26    27    2
    43    26    29    1
    44    29    30    1
    45    24    31    1
    46    31    32    1
    47    31    33    1
    48    12    13    1
    49    13    14    2
    50    14    15    1
    51     4     5   ar
    52     5     6   ar
    53    37    38   ar
    54    38    39   ar
    55    42    43   ar
    56    43    44   ar
    57    54    61    1
    58    61    62    1
    59    61    63    1
    60    53    48    1
    61    44    40   ar
    62    39    34   ar
    63     6     1   ar
    64    15     7    1
    65    14    10    1
    66    21    16    1
    67    57    58    1
    68    25    28    1
    69    44    45    1
