@<TRIPOS>MOLECULE
*****
 37 42 0 0 0
SMALL
GASTEIGER

@<TRIPOS>ATOM
      1 C          60.5966   89.6873   10.9273 C.ar    1  UNL1        0.0140
      2 C          61.7199   90.3996   11.6207 C.ar    1  UNL1        0.0011
      3 C          62.8230   89.6128   12.2642 C.ar    1  UNL1        0.0000
      4 C          62.8028   88.1137   12.2143 C.ar    1  UNL1        0.0000
      5 C          63.9060   87.3270   12.8578 C.ar    1  UNL1        0.0000
      6 C          63.8857   85.8280   12.8079 C.ar    1  UNL1       -0.0000
      7 C          62.7624   85.1157   12.1145 C.ar    1  UNL1       -0.0000
      8 C          61.6592   85.9025   11.4710 C.ar    1  UNL1        0.0000
      9 C          61.6795   87.4015   11.5209 C.ar    1  UNL1        0.0000
     10 C          60.5763   88.1883   10.8774 C.ar    1  UNL1        0.0011
     11 C          63.9464   90.3251   12.9576 C.ar    1  UNL1       -0.0000
     12 C          64.7622   91.3412   12.2146 C.ar    1  UNL1       -0.0003
     13 C          65.8855   92.0534   12.9080 C.ar    1  UNL1       -0.0043
     14 C          66.1931   91.7496   14.3443 C.ar    1  UNL1       -0.0227
     15 C          65.3773   90.7334   15.0873 C.ar    1  UNL1       -0.0043
     16 C          64.2539   90.0212   14.3939 C.ar    1  UNL1       -0.0003
     17 C          67.3165   92.4618   15.0377 C.3     1  UNL1        0.0229
     18 C          68.3550   91.6774   15.7835 C.3     1  UNL1        0.0215
     19 C          69.4783   92.3896   16.4769 C.3     1  UNL1        0.0724
     20 N          69.5632   93.8863   16.4244 N.3     1  UNL1       -0.2726
     21 C          68.5247   94.6707   15.6787 C.3     1  UNL1        0.0724
     22 C          67.4013   93.9585   14.9853 C.3     1  UNL1        0.0215
     23 C          68.9292   93.5404   16.0291 C.3     1  UNL1        0.0724
     24 C          67.9134   92.8963   15.4021 C.3     1  UNL1        0.0215
     25 C          62.7422   83.6167   12.0646 C.ar    1  UNL1       -0.0000
     26 C          62.2510   82.8335   13.2458 C.ar    1  UNL1       -0.0001
     27 C          62.2308   81.3344   13.1959 C.ar    1  UNL1        0.0039
     28 C          62.7018   80.6186   11.9648 C.ar    1  UNL1        0.0714
     29 C          63.1930   81.4018   10.7835 C.ar    1  UNL1        0.0039
     30 C          63.2132   82.9008   10.8334 C.ar    1  UNL1       -0.0001
     31 C          62.6816   79.1196   11.9149 C.3     1  UNL1        0.4186
     32 F          62.6615   77.6206   11.8649 F       1  UNL1       -0.1659
     33 F          62.5028   79.0724   13.4034 F       1  UNL1       -0.1659
     34 F          62.8605   79.1667   10.4263 F       1  UNL1       -0.1659
     35 O          58.6134   91.3546   11.1207 O.co2   1  UNL1       -0.5446
     36 C          59.4934   90.4742   10.2838 C.2     1  UNL1        0.0729
     37 O          59.2703   90.3805    8.8035 O.co2   1  UNL1       -0.5446
@<TRIPOS>UNITY_ATOM_ATTR
35 1
charge -1
@<TRIPOS>BOND
     1    35    36   ar
     2    36    37   ar
     3    36     1    1
     4     1     2   ar
     5     2     3   ar
     6     3    11    1
     7    11    12   ar
     8    12    13   ar
     9    13    14   ar
    10    14    17    1
    11    17    18    1
    12    18    19    1
    13    19    20    1
    14    20    21    1
    15    21    22    1
    16    20    23    1
    17    23    24    1
    18    14    15   ar
    19    15    16   ar
    20     3     4   ar
    21     4     5   ar
    22     5     6   ar
    23     6     7   ar
    24     7    25    1
    25    25    26   ar
    26    26    27   ar
    27    27    28   ar
    28    28    31    1
    29    31    32    1
    30    31    33    1
    31    31    34    1
    32    28    29   ar
    33    29    30   ar
    34     7     8   ar
    35     8     9   ar
    36     9    10   ar
    37    10     1   ar
    38    16    11   ar
    39     9     4   ar
    40    22    17    1
    41    30    25   ar
    42    24    17    1
@<TRIPOS>MOLECULE
*****
 37 42 0 0 0
SMALL
GASTEIGER

@<TRIPOS>ATOM
      1 C          60.5480   88.2949    9.2167 C.ar    1  UNL1        0.0140
      2 C          61.4158   89.1262   10.1144 C.ar    1  UNL1        0.0011
      3 C          62.3571   88.4606   11.0740 C.ar    1  UNL1        0.0000
      4 C          62.4305   86.9636   11.1360 C.ar    1  UNL1        0.0000
      5 C          63.3718   86.2980   12.0957 C.ar    1  UNL1        0.0000
      6 C          63.4452   84.8011   12.1576 C.ar    1  UNL1       -0.0000
      7 C          62.5773   83.9698   11.2600 C.ar    1  UNL1       -0.0000
      8 C          61.6360   84.6355   10.3003 C.ar    1  UNL1        0.0000
      9 C          61.5627   86.1324   10.2384 C.ar    1  UNL1        0.0000
     10 C          60.6214   86.7981    9.2787 C.ar    1  UNL1        0.0011
     11 C          63.2250   89.2919   11.9717 C.ar    1  UNL1       -0.0000
     12 C          63.5998   90.6876   11.5700 C.ar    1  UNL1       -0.0003
     13 C          64.4677   91.5189   12.4677 C.ar    1  UNL1       -0.0043
     14 C          64.9607   90.9544   13.7670 C.ar    1  UNL1       -0.0227
     15 C          64.5859   89.5586   14.1687 C.ar    1  UNL1       -0.0043
     16 C          63.7180   88.7273   13.2710 C.ar    1  UNL1       -0.0003
     17 C          65.8286   91.7857   14.6646 C.3     1  UNL1        0.0229
     18 C          65.3531   92.1506   16.0397 C.3     1  UNL1        0.0215
     19 C          66.2209   92.9818   16.9374 C.3     1  UNL1        0.0724
     20 N          67.5643   93.4482   16.4600 N.3     1  UNL1       -0.2726
     21 C          68.0398   93.0833   15.0849 C.3     1  UNL1        0.0724
     22 C          67.1719   92.2520   14.1873 C.3     1  UNL1        0.0215
     23 C          67.1241   92.9948   15.9322 C.3     1  UNL1        0.0724
     24 C          66.3394   92.2431   15.1205 C.3     1  UNL1        0.0215
     25 C          62.6507   82.4729   11.3220 C.ar    1  UNL1       -0.0000
     26 C          62.3338   81.7588   12.6024 C.ar    1  UNL1       -0.0001
     27 C          62.4072   80.2619   12.6645 C.ar    1  UNL1        0.0039
     28 C          62.7976   79.4790   11.4459 C.ar    1  UNL1        0.0714
     29 C          63.1145   80.1931   10.1654 C.ar    1  UNL1        0.0039
     30 C          63.0411   81.6900   10.1035 C.ar    1  UNL1       -0.0001
     31 C          62.8710   77.9821   11.5079 C.3     1  UNL1        0.4186
     32 F          62.9444   76.4852   11.5699 F       1  UNL1       -0.1659
     33 F          62.6653   78.0335   12.9928 F       1  UNL1       -0.1659
     34 F          63.0767   77.9308   10.0230 F       1  UNL1       -0.1659
     35 O          59.3868   90.4427    8.3285 O.co2   1  UNL1       -0.5446
     36 C          59.6067   88.9607    8.2571 C.2     1  UNL1        0.0729
     37 O          58.8853   88.1442    7.2260 O.co2   1  UNL1       -0.5446
@<TRIPOS>UNITY_ATOM_ATTR
35 1
charge -1
@<TRIPOS>BOND
     1    35    36   ar
     2    36    37   ar
     3    36     1    1
     4     1     2   ar
     5     2     3   ar
     6     3    11    1
     7    11    12   ar
     8    12    13   ar
     9    13    14   ar
    10    14    17    1
    11    17    18    1
    12    18    19    1
    13    19    20    1
    14    20    21    1
    15    21    22    1
    16    20    23    1
    17    23    24    1
    18    14    15   ar
    19    15    16   ar
    20     3     4   ar
    21     4     5   ar
    22     5     6   ar
    23     6     7   ar
    24     7    25    1
    25    25    26   ar
    26    26    27   ar
    27    27    28   ar
    28    28    31    1
    29    31    32    1
    30    31    33    1
    31    31    34    1
    32    28    29   ar
    33    29    30   ar
    34     7     8   ar
    35     8     9   ar
    36     9    10   ar
    37    10     1   ar
    38    16    11   ar
    39     9     4   ar
    40    22    17    1
    41    30    25   ar
    42    24    17    1
@<TRIPOS>MOLECULE
*****
 37 42 0 0 0
SMALL
GASTEIGER

@<TRIPOS>ATOM
      1 C          62.4679   85.7581   12.4405 C.ar    1  UNL1        0.0140
      2 C          61.6696   86.3635   11.3241 C.ar    1  UNL1        0.0011
      3 C          61.8554   87.8085   10.9671 C.ar    1  UNL1        0.0000
      4 C          62.8394   88.6481   11.7266 C.ar    1  UNL1        0.0000
      5 C          63.0252   90.0931   11.3696 C.ar    1  UNL1        0.0000
      6 C          64.0092   90.9327   12.1291 C.ar    1  UNL1       -0.0000
      7 C          64.8074   90.3273   13.2454 C.ar    1  UNL1       -0.0000
      8 C          64.6217   88.8823   13.6024 C.ar    1  UNL1        0.0000
      9 C          63.6377   88.0427   12.8430 C.ar    1  UNL1        0.0000
     10 C          63.4519   86.5977   13.1999 C.ar    1  UNL1        0.0011
     11 C          61.0571   88.4139    9.8508 C.ar    1  UNL1       -0.0000
     12 C          60.7381   87.6017    8.6307 C.ar    1  UNL1       -0.0003
     13 C          59.9398   88.2071    7.5144 C.ar    1  UNL1       -0.0043
     14 C          59.4606   89.6247    7.6180 C.ar    1  UNL1       -0.0227
     15 C          59.7797   90.4369    8.8381 C.ar    1  UNL1       -0.0043
     16 C          60.5779   89.8315    9.9545 C.ar    1  UNL1       -0.0003
     17 C          58.6624   90.2300    6.5016 C.3     1  UNL1        0.0229
     18 C          57.1977   89.9303    6.3786 C.3     1  UNL1        0.0215
     19 C          56.3995   90.5357    5.2623 C.3     1  UNL1        0.0724
     20 N          57.0659   91.4408    4.2689 N.3     1  UNL1       -0.2726
     21 C          58.5305   91.7405    4.3919 C.3     1  UNL1        0.0724
     22 C          59.3287   91.1351    5.5082 C.3     1  UNL1        0.0215
     23 C          57.5446   91.1325    4.8636 C.3     1  UNL1        0.0724
     24 C          58.2664   90.5851    5.8731 C.3     1  UNL1        0.0215
     25 C          65.7914   91.1670   14.0049 C.ar    1  UNL1       -0.0000
     26 C          65.4386   91.6894   15.3659 C.ar    1  UNL1       -0.0001
     27 C          66.4226   92.5291   16.1254 C.ar    1  UNL1        0.0039
     28 C          67.7595   92.8463   15.5237 C.ar    1  UNL1        0.0714
     29 C          68.1124   92.3239   14.1626 C.ar    1  UNL1        0.0039
     30 C          67.1284   91.4842   13.4032 C.ar    1  UNL1       -0.0001
     31 C          68.7435   93.6859   16.2831 C.3     1  UNL1        0.4186
     32 F          69.7275   94.5256   17.0424 F       1  UNL1       -0.1659
     33 F          69.2923   92.4521   16.9362 F       1  UNL1       -0.1659
     34 F          68.1948   94.9197   15.6300 F       1  UNL1       -0.1659
     35 O          62.3655   83.2606   11.7319 O.co2   1  UNL1       -0.5446
     36 C          62.2821   84.3130   12.7974 C.2     1  UNL1        0.0729
     37 O          62.0128   83.9205   14.2199 O.co2   1  UNL1       -0.5446
@<TRIPOS>UNITY_ATOM_ATTR
35 1
charge -1
@<TRIPOS>BOND
     1    35    36   ar
     2    36    37   ar
     3    36     1    1
     4     1     2   ar
     5     2     3   ar
     6     3    11    1
     7    11    12   ar
     8    12    13   ar
     9    13    14   ar
    10    14    17    1
    11    17    18    1
    12    18    19    1
    13    19    20    1
    14    20    21    1
    15    21    22    1
    16    20    23    1
    17    23    24    1
    18    14    15   ar
    19    15    16   ar
    20     3     4   ar
    21     4     5   ar
    22     5     6   ar
    23     6     7   ar
    24     7    25    1
    25    25    26   ar
    26    26    27   ar
    27    27    28   ar
    28    28    31    1
    29    31    32    1
    30    31    33    1
    31    31    34    1
    32    28    29   ar
    33    29    30   ar
    34     7     8   ar
    35     8     9   ar
    36     9    10   ar
    37    10     1   ar
    38    16    11   ar
    39     9     4   ar
    40    22    17    1
    41    30    25   ar
    42    24    17    1
@<TRIPOS>MOLECULE
*****
 37 42 0 0 0
SMALL
GASTEIGER

@<TRIPOS>ATOM
      1 C          63.1026   87.2848   17.3252 C.ar    1  UNL1        0.0140
      2 C          63.5754   88.4510   16.5089 C.ar    1  UNL1        0.0011
      3 C          63.8798   88.2719   15.0511 C.ar    1  UNL1        0.0000
      4 C          63.7113   86.9265   14.4095 C.ar    1  UNL1        0.0000
      5 C          64.0157   86.7474   12.9517 C.ar    1  UNL1        0.0000
      6 C          63.8472   85.4021   12.3102 C.ar    1  UNL1       -0.0000
      7 C          63.3744   84.2358   13.1264 C.ar    1  UNL1       -0.0000
      8 C          63.0700   84.4149   14.5842 C.ar    1  UNL1        0.0000
      9 C          63.2385   85.7603   15.2258 C.ar    1  UNL1        0.0000
     10 C          62.9341   85.9394   16.6837 C.ar    1  UNL1        0.0011
     11 C          64.3526   89.4382   14.2348 C.ar    1  UNL1       -0.0000
     12 C          63.5667   89.8832   13.0373 C.ar    1  UNL1       -0.0003
     13 C          64.0395   91.0495   12.2210 C.ar    1  UNL1       -0.0043
     14 C          65.2982   91.7707   12.6023 C.ar    1  UNL1       -0.0227
     15 C          66.0842   91.3256   13.7999 C.ar    1  UNL1       -0.0043
     16 C          65.6114   90.1594   14.6162 C.ar    1  UNL1       -0.0003
     17 C          65.7710   92.9369   11.7860 C.3     1  UNL1        0.0229
     18 C          66.1831   92.7349   10.3579 C.3     1  UNL1        0.0215
     19 C          66.6559   93.9012    9.5416 C.3     1  UNL1        0.0724
     20 N          66.7167   95.2694   10.1535 N.3     1  UNL1       -0.2726
     21 C          66.3047   95.4714   11.5816 C.3     1  UNL1        0.0724
     22 C          65.8319   94.3051   12.3978 C.3     1  UNL1        0.0215
     23 C          66.4508   94.6609   10.6403 C.3     1  UNL1        0.0724
     24 C          66.0233   93.6063   11.3784 C.3     1  UNL1        0.0215
     25 C          63.2059   82.8904   12.4848 C.ar    1  UNL1       -0.0000
     26 C          63.5259   82.7075   11.0308 C.ar    1  UNL1       -0.0001
     27 C          63.3575   81.3621   10.3892 C.ar    1  UNL1        0.0039
     28 C          62.8690   80.1997   11.2017 C.ar    1  UNL1        0.0714
     29 C          62.5490   80.3826   12.6557 C.ar    1  UNL1        0.0039
     30 C          62.7174   81.7280   13.2973 C.ar    1  UNL1       -0.0001
     31 C          62.7005   78.8543   10.5601 C.3     1  UNL1        0.4186
     32 F          62.5321   77.5090    9.9186 F       1  UNL1       -0.1659
     33 F          62.7244   78.2064   11.9127 F       1  UNL1       -0.1659
     34 F          62.6767   79.5023    9.2076 F       1  UNL1       -0.1659
     35 O          63.2002   88.7280   19.4834 O.co2   1  UNL1       -0.5446
     36 C          62.7982   87.4639   18.7831 C.2     1  UNL1        0.0729
     37 O          62.0918   86.3789   19.5406 O.co2   1  UNL1       -0.5446
@<TRIPOS>UNITY_ATOM_ATTR
35 1
charge -1
@<TRIPOS>BOND
     1    35    36   ar
     2    36    37   ar
     3    36     1    1
     4     1     2   ar
     5     2     3   ar
     6     3    11    1
     7    11    12   ar
     8    12    13   ar
     9    13    14   ar
    10    14    17    1
    11    17    18    1
    12    18    19    1
    13    19    20    1
    14    20    21    1
    15    21    22    1
    16    20    23    1
    17    23    24    1
    18    14    15   ar
    19    15    16   ar
    20     3     4   ar
    21     4     5   ar
    22     5     6   ar
    23     6     7   ar
    24     7    25    1
    25    25    26   ar
    26    26    27   ar
    27    27    28   ar
    28    28    31    1
    29    31    32    1
    30    31    33    1
    31    31    34    1
    32    28    29   ar
    33    29    30   ar
    34     7     8   ar
    35     8     9   ar
    36     9    10   ar
    37    10     1   ar
    38    16    11   ar
    39     9     4   ar
    40    22    17    1
    41    30    25   ar
    42    24    17    1
