@<TRIPOS>MOLECULE
*****
 37 42 0 0 0
SMALL
GASTEIGER

@<TRIPOS>ATOM
      1 C          64.8618   91.6157   12.4041 C.ar    1  UNL1        0.0381
      2 C          63.6470   90.9143   11.8727 C.ar    1  UNL1        0.0415
      3 C          62.8103   90.0678   12.7855 C.ar    1  UNL1        0.1578
      4 C          63.1884   89.9226   14.2298 C.ar    1  UNL1        0.1356
      5 N          64.4032   90.6240   14.7612 N.ar    1  UNL1       -0.2405
      6 C          65.2398   91.4705   13.8484 C.ar    1  UNL1        0.0861
      7 C          64.5844   96.8558    9.7104 C.3     1  UNL1        0.0557
      8 C          65.8000   95.9984    9.5170 C.2     1  UNL1        0.0996
      9 N          66.9974   96.3421    8.6816 N.2     1  UNL1       -0.1511
     10 N          67.9689   95.2029    8.7733 N.2     1  UNL1       -0.1507
     11 C          67.3719   94.1552    9.6655 C.2     1  UNL1        0.1036
     12 C          67.8757   92.8171   10.1187 C.3     1  UNL1        0.0768
     13 C          67.0390   91.9706   11.0316 C.2     1  UNL1       -0.0005
     14 C          65.6985   92.4623   11.4912 C.2     1  UNL1        0.0790
     15 N          65.1947   93.8004   11.0379 N.2     1  UNL1       -0.2431
     16 C          66.0314   94.6469   10.1251 C.2     1  UNL1        0.1120
     17 C          66.4547   92.1720   14.3798 C.ar    1  UNL1        0.0584
     18 C          67.7268   91.5152   14.8272 C.ar    1  UNL1        0.0453
     19 C          68.6689   92.5906   15.2810 C.ar    1  UNL1        0.1798
     20 O          67.9790   93.9121   15.1140 O.2     1  UNL1       -0.4473
     21 C          66.6105   93.6533   14.5570 C.ar    1  UNL1        0.1812
     22 O          61.5956   89.3664   12.2541 O.3     1  UNL1       -0.4724
     23 C          61.0988   89.6702   10.8718 C.3     1  UNL1        0.2211
     24 C          60.5978   88.5616    9.9943 C.3     1  UNL1        0.0995
     25 N          60.0675   88.8698    8.6254 N.3     1  UNL1       -0.3190
     26 H          59.7727   88.0049    8.1723 H       1  UNL1        0.1189
     27 H          60.7988   89.3129    8.0693 H       1  UNL1        0.1189
     28 C          60.6272   87.1446   10.4857 C.3     1  UNL1        0.0472
     29 C          61.6257   86.1765    9.9237 C.2     1  UNL1       -0.0005
     30 C          61.9786   86.0155    8.4747 C.2     1  UNL1        0.0942
     31 N          63.0176   84.9389    8.3675 N.2     1  UNL1       -0.2482
     32 C          63.3068   84.4345    9.7503 C.2     1  UNL1        0.0631
     33 C          64.2422   83.3776   10.2579 C.3     1  UNL1        0.0717
     34 C          64.3175   83.0854   11.7273 C.2     1  UNL1       -0.0198
     35 C          63.4573   83.8503   12.6890 C.2     1  UNL1       -0.0042
     36 C          62.5218   84.9073   12.1814 C.2     1  UNL1        0.0006
     37 C          62.4465   85.1993   10.7120 C.2     1  UNL1        0.0114
@<TRIPOS>BOND
     1     7     8    1
     2     8     9    2
     3     9    10    1
     4    10    11    2
     5    11    12    1
     6    12    13    1
     7    13    14    2
     8    14     1    1
     9     1     2   ar
    10     2     3   ar
    11     3    22    1
    12    22    23    1
    13    23    24    1
    14    24    25    1
    15    24    28    1
    16    28    29    1
    17    29    30    2
    18    30    31    1
    19    31    32    2
    20    32    33    1
    21    33    34    1
    22    34    35    2
    23    35    36    1
    24    36    37    2
    25     3     4   ar
    26     4     5   ar
    27     5     6   ar
    28     6    17    1
    29    17    18   ar
    30    18    19   ar
    31    19    20   ar
    32    20    21   ar
    33    14    15    1
    34    15    16    2
    35    16     8    1
    36    16    11    1
    37     6     1   ar
    38    21    17   ar
    39    37    29    1
    40    37    32    1
    41    25    26    1
    42    25    27    1
@<TRIPOS>MOLECULE
*****
 37 42 0 0 0
SMALL
GASTEIGER

@<TRIPOS>ATOM
      1 C          65.1019   91.7537   12.8769 C.ar    1  UNL1        0.0381
      2 C          63.8014   91.0977   12.5190 C.ar    1  UNL1        0.0415
      3 C          63.0338   90.3367   13.5592 C.ar    1  UNL1        0.1578
      4 C          63.5669   90.2318   14.9573 C.ar    1  UNL1        0.1356
      5 N          64.8676   90.8878   15.3153 N.ar    1  UNL1       -0.2405
      6 C          65.6350   91.6487   14.2751 C.ar    1  UNL1        0.0861
      7 C          64.7434   96.8559    9.9393 C.3     1  UNL1        0.0557
      8 C          65.8978   95.9370    9.6692 C.2     1  UNL1        0.0996
      9 N          67.0126   96.1843    8.6965 N.2     1  UNL1       -0.1511
     10 N          67.9438   95.0096    8.7505 N.2     1  UNL1       -0.1507
     11 C          67.4045   94.0363    9.7565 C.2     1  UNL1        0.1036
     12 C          67.9015   92.7023   10.2288 C.3     1  UNL1        0.0768
     13 C          67.1340   91.9414   11.2690 C.2     1  UNL1       -0.0005
     14 C          65.8695   92.5146   11.8368 C.2     1  UNL1        0.0790
     15 N          65.3724   93.8487   11.3644 N.2     1  UNL1       -0.2431
     16 C          66.1400   94.6096   10.3243 C.2     1  UNL1        0.1120
     17 C          66.9356   92.3048   14.6330 C.ar    1  UNL1        0.0584
     18 C          68.2973   91.6876   14.5113 C.ar    1  UNL1        0.0453
     19 C          69.3061   92.6945   14.9786 C.ar    1  UNL1        0.1798
     20 O          68.5679   93.9341   15.3892 O.2     1  UNL1       -0.4473
     21 C          67.1029   93.6932   15.1756 C.ar    1  UNL1        0.1812
     22 O          61.7333   89.6807   13.2012 O.3     1  UNL1       -0.4724
     23 C          61.0843   89.9730   11.8808 C.3     1  UNL1        0.2211
     24 C          60.5241   88.8523   11.0561 C.3     1  UNL1        0.0995
     25 N          60.3225   87.4981   11.6690 N.3     1  UNL1       -0.3190
     26 H          59.9367   86.8628   10.9705 H       1  UNL1        0.1189
     27 H          59.6759   87.5732   12.4543 H       1  UNL1        0.1189
     28 C          60.1655   89.0857    9.6184 C.3     1  UNL1        0.0472
     29 C          60.0237   87.9221    8.6824 C.2     1  UNL1       -0.0005
     30 C          58.8138   87.5962    7.8579 C.2     1  UNL1        0.0942
     31 N          59.1093   86.3529    7.0725 N.2     1  UNL1       -0.2482
     32 C          60.5019   85.9104    7.4115 C.2     1  UNL1        0.0631
     33 C          61.3283   84.7497    6.9429 C.3     1  UNL1        0.0717
     34 C          62.7200   84.5588    7.4691 C.2     1  UNL1       -0.0198
     35 C          63.2851   85.5287    8.4641 C.2     1  UNL1       -0.0042
     36 C          62.4586   86.6894    8.9328 C.2     1  UNL1        0.0006
     37 C          61.0670   86.8803    8.4065 C.2     1  UNL1        0.0114
@<TRIPOS>BOND
     1     7     8    1
     2     8     9    2
     3     9    10    1
     4    10    11    2
     5    11    12    1
     6    12    13    1
     7    13    14    2
     8    14     1    1
     9     1     2   ar
    10     2     3   ar
    11     3    22    1
    12    22    23    1
    13    23    24    1
    14    24    25    1
    15    24    28    1
    16    28    29    1
    17    29    30    2
    18    30    31    1
    19    31    32    2
    20    32    33    1
    21    33    34    1
    22    34    35    2
    23    35    36    1
    24    36    37    2
    25     3     4   ar
    26     4     5   ar
    27     5     6   ar
    28     6    17    1
    29    17    18   ar
    30    18    19   ar
    31    19    20   ar
    32    20    21   ar
    33    14    15    1
    34    15    16    2
    35    16     8    1
    36    16    11    1
    37     6     1   ar
    38    21    17   ar
    39    37    29    1
    40    37    32    1
    41    25    26    1
    42    25    27    1
@<TRIPOS>MOLECULE
*****
 37 42 0 0 0
SMALL
GASTEIGER

@<TRIPOS>ATOM
      1 C          64.0977   90.7521   13.1745 C.ar    1  UNL1        0.0381
      2 C          63.2605   90.5728   11.9428 C.ar    1  UNL1        0.0415
      3 C          63.5324   91.4035   10.7237 C.ar    1  UNL1        0.1578
      4 C          64.6414   92.4134   10.7364 C.ar    1  UNL1        0.1356
      5 N          65.4785   92.5927   11.9681 N.ar    1  UNL1       -0.2405
      6 C          65.2067   91.7620   13.1871 C.ar    1  UNL1        0.0861
      7 C          64.2851   85.0925   14.8253 C.3     1  UNL1        0.0557
      8 C          63.8534   86.1295   15.8194 C.2     1  UNL1        0.0996
      9 N          63.4491   85.8736   17.2411 N.2     1  UNL1       -0.1511
     10 N          63.0961   87.1905   17.8667 N.2     1  UNL1       -0.1507
     11 C          63.2822   88.2601   16.8317 C.2     1  UNL1        0.1036
     12 C          63.0860   89.7465   16.8779 C.3     1  UNL1        0.0768
     13 C          63.3578   90.5771   15.6588 C.2     1  UNL1       -0.0005
     14 C          63.8259   89.9214   14.3936 C.2     1  UNL1        0.0790
     15 N          64.0221   88.4350   14.3473 N.2     1  UNL1       -0.2431
     16 C          63.7503   87.6044   15.5664 C.2     1  UNL1        0.1120
     17 C          66.0439   91.9412   14.4188 C.ar    1  UNL1        0.0584
     18 C          67.4015   91.3492   14.6560 C.ar    1  UNL1        0.0453
     19 C          67.8670   91.7860   16.0134 C.ar    1  UNL1        0.1798
     20 O          66.7971   92.6481   16.6151 O.2     1  UNL1       -0.4473
     21 C          65.6703   92.7440   15.6296 C.ar    1  UNL1        0.1812
     22 O          62.6952   91.2242    9.4921 O.3     1  UNL1       -0.4724
     23 C          61.8911   89.9715    9.3075 C.3     1  UNL1        0.2211
     24 C          60.6228   89.7733   10.0834 C.3     1  UNL1        0.0995
     25 N          59.9104   90.9555   10.6708 N.3     1  UNL1       -0.3190
     26 H          59.0736   90.6391   11.1609 H       1  UNL1        0.1189
     27 H          59.6448   91.5978    9.9243 H       1  UNL1        0.1189
     28 C          60.0667   88.3930   10.2718 C.3     1  UNL1        0.0472
     29 C          59.9642   87.4596    9.1020 C.2     1  UNL1       -0.0005
     30 C          58.7667   87.2848    8.2158 C.2     1  UNL1        0.0942
     31 N          59.1036   86.2543    7.1792 N.2     1  UNL1       -0.2482
     32 C          60.5094   85.7922    7.4247 C.2     1  UNL1        0.0631
     33 C          61.3738   84.7894    6.7197 C.3     1  UNL1        0.0717
     34 C          62.7702   84.5314    7.2031 C.2     1  UNL1       -0.0198
     35 C          63.3020   85.2763    8.3914 C.2     1  UNL1       -0.0042
     36 C          62.4376   86.2791    9.0964 C.2     1  UNL1        0.0006
     37 C          61.0412   86.5371    8.6130 C.2     1  UNL1        0.0114
@<TRIPOS>BOND
     1     7     8    1
     2     8     9    2
     3     9    10    1
     4    10    11    2
     5    11    12    1
     6    12    13    1
     7    13    14    2
     8    14     1    1
     9     1     2   ar
    10     2     3   ar
    11     3    22    1
    12    22    23    1
    13    23    24    1
    14    24    25    1
    15    24    28    1
    16    28    29    1
    17    29    30    2
    18    30    31    1
    19    31    32    2
    20    32    33    1
    21    33    34    1
    22    34    35    2
    23    35    36    1
    24    36    37    2
    25     3     4   ar
    26     4     5   ar
    27     5     6   ar
    28     6    17    1
    29    17    18   ar
    30    18    19   ar
    31    19    20   ar
    32    20    21   ar
    33    14    15    1
    34    15    16    2
    35    16     8    1
    36    16    11    1
    37     6     1   ar
    38    21    17   ar
    39    37    29    1
    40    37    32    1
    41    25    26    1
    42    25    27    1
@<TRIPOS>MOLECULE
*****
 37 42 0 0 0
SMALL
GASTEIGER

@<TRIPOS>ATOM
      1 C          62.3178   86.9642   10.6014 C.ar    1  UNL1        0.0381
      2 C          62.6453   88.0055   11.6302 C.ar    1  UNL1        0.0415
      3 C          62.2708   89.4385   11.3927 C.ar    1  UNL1        0.1578
      4 C          61.5688   89.8301   10.1262 C.ar    1  UNL1        0.1356
      5 N          61.2413   88.7888    9.0974 N.ar    1  UNL1       -0.2405
      6 C          61.6158   87.3559    9.3350 C.ar    1  UNL1        0.0861
      7 C          62.0517   82.9619   14.9260 C.3     1  UNL1        0.0557
      8 C          62.6494   82.5729   13.6064 C.2     1  UNL1        0.0996
      9 N          63.2076   81.2259   13.2541 N.2     1  UNL1       -0.1511
     10 N          63.6970   81.2831   11.8374 N.2     1  UNL1       -0.1507
     11 C          63.4412   82.6654   11.3140 C.2     1  UNL1        0.1036
     12 C          63.7142   83.3012    9.9832 C.3     1  UNL1        0.0768
     13 C          63.3398   84.7341    9.7457 C.2     1  UNL1       -0.0005
     14 C          62.6923   85.5312   10.8390 C.2     1  UNL1        0.0790
     15 N          62.4193   84.8954   12.1698 N.2     1  UNL1       -0.2431
     16 C          62.7937   83.4625   12.4073 C.2     1  UNL1        0.1120
     17 C          61.2883   86.3146    8.3061 C.ar    1  UNL1        0.0584
     18 C          62.2798   85.4965    7.5330 C.ar    1  UNL1        0.0453
     19 C          61.5161   84.5849    6.6189 C.ar    1  UNL1        0.1798
     20 O          60.0525   84.8395    6.8271 O.2     1  UNL1       -0.4473
     21 C          59.9118   85.9085    7.8698 C.ar    1  UNL1        0.1812
     22 O          62.5983   90.4797   12.4215 O.3     1  UNL1       -0.4724
     23 C          63.5539   91.5873   12.0898 C.3     1  UNL1        0.2211
     24 C          64.7787   91.7978   12.9297 C.3     1  UNL1        0.0995
     25 N          65.5020   93.1112   12.8854 N.3     1  UNL1       -0.3190
     26 H          66.3049   93.0786   13.5136 H       1  UNL1        0.1189
     27 H          64.8709   93.8569   13.1788 H       1  UNL1        0.1189
     28 C          65.2803   90.6948   13.8140 C.3     1  UNL1        0.0472
     29 C          64.4605   90.2411   14.9854 C.2     1  UNL1       -0.0005
     30 C          63.8051   91.1302   16.0002 C.2     1  UNL1        0.0942
     31 N          63.0916   90.2571   16.9895 N.2     1  UNL1       -0.2482
     32 C          63.3061   88.8284   16.5861 C.2     1  UNL1        0.0631
     33 C          62.8405   87.5352   17.1866 C.3     1  UNL1        0.0717
     34 C          63.2207   86.2319   16.5486 C.2     1  UNL1       -0.0198
     35 C          64.0667   86.2221   15.3100 C.2     1  UNL1       -0.0042
     36 C          64.5324   87.5153   14.7094 C.2     1  UNL1        0.0006
     37 C          64.1521   88.8185   15.3475 C.2     1  UNL1        0.0114
@<TRIPOS>BOND
     1     7     8    1
     2     8     9    2
     3     9    10    1
     4    10    11    2
     5    11    12    1
     6    12    13    1
     7    13    14    2
     8    14     1    1
     9     1     2   ar
    10     2     3   ar
    11     3    22    1
    12    22    23    1
    13    23    24    1
    14    24    25    1
    15    24    28    1
    16    28    29    1
    17    29    30    2
    18    30    31    1
    19    31    32    2
    20    32    33    1
    21    33    34    1
    22    34    35    2
    23    35    36    1
    24    36    37    2
    25     3     4   ar
    26     4     5   ar
    27     5     6   ar
    28     6    17    1
    29    17    18   ar
    30    18    19   ar
    31    19    20   ar
    32    20    21   ar
    33    14    15    1
    34    15    16    2
    35    16     8    1
    36    16    11    1
    37     6     1   ar
    38    21    17   ar
    39    37    29    1
    40    37    32    1
    41    25    26    1
    42    25    27    1
@<TRIPOS>MOLECULE
*****
 37 42 0 0 0
SMALL
GASTEIGER

@<TRIPOS>ATOM
      1 C          63.2945   85.1014   13.8675 C.ar    1  UNL1        0.0381
      2 C          63.5472   86.4674   14.4332 C.ar    1  UNL1        0.0415
      3 C          63.5888   86.6678   15.9193 C.ar    1  UNL1        0.1578
      4 C          63.3777   85.5022   16.8394 C.ar    1  UNL1        0.1356
      5 N          63.1249   84.1361   16.2736 N.ar    1  UNL1       -0.2405
      6 C          63.0833   83.9358   14.7876 C.ar    1  UNL1        0.0861
      7 C          60.3164   87.1227    9.1944 C.3     1  UNL1        0.0557
      8 C          61.3871   86.0924    8.9886 C.2     1  UNL1        0.0996
      9 N          61.7979   85.4983    7.6740 N.2     1  UNL1       -0.1511
     10 N          62.8996   84.5142    7.9342 N.2     1  UNL1       -0.1507
     11 C          63.1697   84.5001    9.4096 C.2     1  UNL1        0.1036
     12 C          64.1461   83.7251   10.2438 C.3     1  UNL1        0.0768
     13 C          64.1876   83.9255   11.7298 C.2     1  UNL1       -0.0005
     14 C          63.2528   84.9010   12.3814 C.2     1  UNL1        0.0790
     15 N          62.2765   85.6760   11.5472 N.2     1  UNL1       -0.2431
     16 C          62.2349   85.4755   10.0613 C.2     1  UNL1        0.1120
     17 C          62.8306   82.5697   14.2218 C.ar    1  UNL1        0.0584
     18 C          61.4978   81.8887   14.1238 C.ar    1  UNL1        0.0453
     19 C          61.7098   80.5430   13.4961 C.ar    1  UNL1        0.1798
     20 O          63.1738   80.3923   13.2060 O.2     1  UNL1       -0.4473
     21 C          63.8665   81.6449   13.6546 C.ar    1  UNL1        0.1812
     22 O          63.8415   88.0338   16.4850 O.3     1  UNL1       -0.4724
     23 C          63.1671   89.2312   15.8837 C.3     1  UNL1        0.2211
     24 C          63.9043   90.5333   15.7790 C.3     1  UNL1        0.0995
     25 N          63.4698   91.7095   16.6024 N.3     1  UNL1       -0.3190
     26 H          64.0779   92.5047   16.4067 H       1  UNL1        0.1189
     27 H          63.5290   91.4718   17.5925 H       1  UNL1        0.1189
     28 C          65.0759   90.6593   14.8508 C.3     1  UNL1        0.0472
     29 C          64.8908   91.2528   13.4857 C.2     1  UNL1       -0.0005
     30 C          65.5927   92.4647   12.9485 C.2     1  UNL1        0.0942
     31 N          65.1069   92.6994   11.5489 N.2     1  UNL1       -0.2482
     32 C          64.1048   91.6325   11.2210 C.2     1  UNL1        0.0631
     33 C          63.2967   91.3596    9.9872 C.3     1  UNL1        0.0717
     34 C          62.3549   90.1926    9.9502 C.2     1  UNL1       -0.0198
     35 C          62.2213   89.2986   11.1473 C.2     1  UNL1       -0.0042
     36 C          63.0295   89.5715   12.3811 C.2     1  UNL1        0.0006
     37 C          63.9712   90.7384   12.4180 C.2     1  UNL1        0.0114
@<TRIPOS>BOND
     1     7     8    1
     2     8     9    2
     3     9    10    1
     4    10    11    2
     5    11    12    1
     6    12    13    1
     7    13    14    2
     8    14     1    1
     9     1     2   ar
    10     2     3   ar
    11     3    22    1
    12    22    23    1
    13    23    24    1
    14    24    25    1
    15    24    28    1
    16    28    29    1
    17    29    30    2
    18    30    31    1
    19    31    32    2
    20    32    33    1
    21    33    34    1
    22    34    35    2
    23    35    36    1
    24    36    37    2
    25     3     4   ar
    26     4     5   ar
    27     5     6   ar
    28     6    17    1
    29    17    18   ar
    30    18    19   ar
    31    19    20   ar
    32    20    21   ar
    33    14    15    1
    34    15    16    2
    35    16     8    1
    36    16    11    1
    37     6     1   ar
    38    21    17   ar
    39    37    29    1
    40    37    32    1
    41    25    26    1
    42    25    27    1
@<TRIPOS>MOLECULE
*****
 37 42 0 0 0
SMALL
GASTEIGER

@<TRIPOS>ATOM
      1 C          64.7363   91.5648   12.2369 C.ar    1  UNL1        0.0381
      2 C          63.5266   90.9125   11.6360 C.ar    1  UNL1        0.0415
      3 C          62.6201   90.0796   12.4930 C.ar    1  UNL1        0.1578
      4 C          62.9233   89.8990   13.9509 C.ar    1  UNL1        0.1356
      5 N          64.1331   90.5513   14.5518 N.ar    1  UNL1       -0.2405
      6 C          65.0396   91.3842   13.6947 C.ar    1  UNL1        0.0861
      7 C          64.7573   96.8529    9.6240 C.3     1  UNL1        0.0557
      8 C          65.9527   95.9594    9.4742 C.2     1  UNL1        0.0996
      9 N          67.1996   96.2767    8.7031 N.2     1  UNL1       -0.1511
     10 N          68.1286   95.1050    8.8216 N.2     1  UNL1       -0.1507
     11 C          67.4559   94.0636    9.6659 C.2     1  UNL1        0.1036
     12 C          67.8942   92.7026   10.1195 C.3     1  UNL1        0.0768
     13 C          66.9877   91.8698   10.9765 C.2     1  UNL1       -0.0005
     14 C          65.6429   92.3978   11.3798 C.2     1  UNL1        0.0790
     15 N          65.2046   93.7587   10.9262 N.2     1  UNL1       -0.2431
     16 C          66.1111   94.5916   10.0693 C.2     1  UNL1        0.1120
     17 C          66.2493   92.0365   14.2956 C.ar    1  UNL1        0.0584
     18 C          67.4500   91.3278   14.8488 C.ar    1  UNL1        0.0453
     19 C          68.4135   92.3654   15.3438 C.ar    1  UNL1        0.1798
     20 O          67.8083   93.7155   15.0966 O.2     1  UNL1       -0.4473
     21 C          66.4708   93.5122   14.4487 C.ar    1  UNL1        0.1812
     22 O          61.4104   89.4273   11.8922 O.3     1  UNL1       -0.4724
     23 C          61.2881   87.9323   11.8890 C.3     1  UNL1        0.2211
     24 C          61.9338   87.1293   10.7990 C.3     1  UNL1        0.0995
     25 N          62.4293   87.8111    9.5581 N.3     1  UNL1       -0.3190
     26 H          62.8362   87.1188    8.9292 H       1  UNL1        0.1189
     27 H          63.1378   88.5007    9.8088 H       1  UNL1        0.1189
     28 C          62.0841   85.6445   10.9498 C.3     1  UNL1        0.0472
     29 C          62.7899   85.0798   12.1470 C.2     1  UNL1       -0.0005
     30 C          63.4530   85.8721   13.2344 C.2     1  UNL1        0.0942
     31 N          64.0293   84.9057   14.2264 N.2     1  UNL1       -0.2482
     32 C          63.7223   83.5162   13.7520 C.2     1  UNL1        0.0631
     33 C          64.0414   82.1669   14.3242 C.3     1  UNL1        0.0717
     34 C          63.5944   80.9251   13.6113 C.2     1  UNL1       -0.0198
     35 C          62.8283   81.0327   12.3261 C.2     1  UNL1       -0.0042
     36 C          62.5093   82.3821   11.7539 C.2     1  UNL1        0.0006
     37 C          62.9563   83.6238   12.4669 C.2     1  UNL1        0.0114
@<TRIPOS>BOND
     1     7     8    1
     2     8     9    2
     3     9    10    1
     4    10    11    2
     5    11    12    1
     6    12    13    1
     7    13    14    2
     8    14     1    1
     9     1     2   ar
    10     2     3   ar
    11     3    22    1
    12    22    23    1
    13    23    24    1
    14    24    25    1
    15    24    28    1
    16    28    29    1
    17    29    30    2
    18    30    31    1
    19    31    32    2
    20    32    33    1
    21    33    34    1
    22    34    35    2
    23    35    36    1
    24    36    37    2
    25     3     4   ar
    26     4     5   ar
    27     5     6   ar
    28     6    17    1
    29    17    18   ar
    30    18    19   ar
    31    19    20   ar
    32    20    21   ar
    33    14    15    1
    34    15    16    2
    35    16     8    1
    36    16    11    1
    37     6     1   ar
    38    21    17   ar
    39    37    29    1
    40    37    32    1
    41    25    26    1
    42    25    27    1
@<TRIPOS>MOLECULE
*****
 37 42 0 0 0
SMALL
GASTEIGER

@<TRIPOS>ATOM
      1 C          63.7246   90.3319   13.0861 C.ar    1  UNL1        0.0381
      2 C          62.8265   90.0165   11.9270 C.ar    1  UNL1        0.0415
      3 C          63.0112   90.7284   10.6196 C.ar    1  UNL1        0.1578
      4 C          64.0940   91.7559   10.4716 C.ar    1  UNL1        0.1356
      5 N          64.9922   92.0713   11.6309 N.ar    1  UNL1       -0.2405
      6 C          64.8075   91.3593   12.9381 C.ar    1  UNL1        0.0861
      7 C          64.1316   84.8650   15.2630 C.3     1  UNL1        0.0557
      8 C          63.7327   85.9868   16.1754 C.2     1  UNL1        0.0996
      9 N          63.4140   85.8644   17.6360 N.2     1  UNL1       -0.1511
     10 N          63.0667   87.2298   18.1506 N.2     1  UNL1       -0.1507
     11 C          63.1707   88.1961   17.0081 C.2     1  UNL1        0.1036
     12 C          62.9438   89.6763   16.9216 C.3     1  UNL1        0.0768
     13 C          63.1284   90.3882   15.6143 C.2     1  UNL1       -0.0005
     14 C          63.5400   89.6199   14.3935 C.2     1  UNL1        0.0790
     15 N          63.7669   88.1397   14.4800 N.2     1  UNL1       -0.2431
     16 C          63.5823   87.4279   15.7873 C.2     1  UNL1        0.1120
     17 C          65.7056   91.6747   14.0974 C.ar    1  UNL1        0.0584
     18 C          67.1338   91.2422   14.2494 C.ar    1  UNL1        0.0453
     19 C          67.6441   91.7782   15.5541 C.ar    1  UNL1        0.1798
     20 O          66.5312   92.5421   16.2085 O.2     1  UNL1       -0.4473
     21 C          65.3332   92.4781   15.3082 C.ar    1  UNL1        0.1812
     22 O          62.1130   90.4130    9.4604 O.3     1  UNL1       -0.4724
     23 C          60.7179   89.9194    9.7052 C.3     1  UNL1        0.2211
     24 C          60.3423   88.5162    9.3312 C.3     1  UNL1        0.0995
     25 N          59.5283   88.2612    8.0973 N.3     1  UNL1       -0.3190
     26 H          59.3671   87.2590    7.9975 H       1  UNL1        0.1189
     27 H          60.0315   88.6076    7.2805 H       1  UNL1        0.1189
     28 C          60.7807   87.3680   10.1911 C.3     1  UNL1        0.0472
     29 C          61.6973   86.3200    9.6328 C.2     1  UNL1       -0.0005
     30 C          62.0509   86.1379    8.1865 C.2     1  UNL1        0.0942
     31 N          62.9933   84.9755    8.0826 N.2     1  UNL1       -0.2482
     32 C          63.2222   84.4393    9.4647 C.2     1  UNL1        0.0631
     33 C          64.0564   83.3018    9.9746 C.3     1  UNL1        0.0717
     34 C          64.0897   82.9952   11.4426 C.2     1  UNL1       -0.0198
     35 C          63.2887   83.8262   12.4006 C.2     1  UNL1       -0.0042
     36 C          62.4544   84.9637   11.8907 C.2     1  UNL1        0.0006
     37 C          62.4212   85.2703   10.4227 C.2     1  UNL1        0.0114
@<TRIPOS>BOND
     1     7     8    1
     2     8     9    2
     3     9    10    1
     4    10    11    2
     5    11    12    1
     6    12    13    1
     7    13    14    2
     8    14     1    1
     9     1     2   ar
    10     2     3   ar
    11     3    22    1
    12    22    23    1
    13    23    24    1
    14    24    25    1
    15    24    28    1
    16    28    29    1
    17    29    30    2
    18    30    31    1
    19    31    32    2
    20    32    33    1
    21    33    34    1
    22    34    35    2
    23    35    36    1
    24    36    37    2
    25     3     4   ar
    26     4     5   ar
    27     5     6   ar
    28     6    17    1
    29    17    18   ar
    30    18    19   ar
    31    19    20   ar
    32    20    21   ar
    33    14    15    1
    34    15    16    2
    35    16     8    1
    36    16    11    1
    37     6     1   ar
    38    21    17   ar
    39    37    29    1
    40    37    32    1
    41    25    26    1
    42    25    27    1
@<TRIPOS>MOLECULE
*****
 37 42 0 0 0
SMALL
GASTEIGER

@<TRIPOS>ATOM
      1 C          62.4635   87.6413   11.3016 C.ar    1  UNL1        0.0381
      2 C          63.0412   88.6082   12.2922 C.ar    1  UNL1        0.0415
      3 C          62.8752   90.0844   12.0837 C.ar    1  UNL1        0.1578
      4 C          62.1315   90.5936   10.8847 C.ar    1  UNL1        0.1356
      5 N          61.5538   89.6265    9.8941 N.ar    1  UNL1       -0.2405
      6 C          61.7198   88.1504   10.1026 C.ar    1  UNL1        0.0861
      7 C          62.3741   83.7425   15.7269 C.3     1  UNL1        0.0557
      8 C          62.6282   83.2570   14.3306 C.2     1  UNL1        0.0996
      9 N          62.8712   81.8342   13.9224 N.2     1  UNL1       -0.1511
     10 N          63.0772   81.8069   12.4369 N.2     1  UNL1       -0.1507
     11 C          62.9615   83.2129   11.9269 C.2     1  UNL1        0.1036
     12 C          63.0730   83.7928   10.5481 C.3     1  UNL1        0.0768
     13 C          62.9070   85.2689   10.3397 C.2     1  UNL1       -0.0005
     14 C          62.6295   86.1651   11.5101 C.2     1  UNL1        0.0790
     15 N          62.5180   85.5852   12.8889 N.2     1  UNL1       -0.2431
     16 C          62.6840   84.1090   13.0974 C.2     1  UNL1        0.1120
     17 C          61.1421   87.1834    9.1121 C.ar    1  UNL1        0.0584
     18 C          61.9202   86.3432    8.1433 C.ar    1  UNL1        0.0453
     19 C          60.9438   85.5273    7.3489 C.ar    1  UNL1        0.1798
     20 O          59.5622   85.8632    7.8268 O.2     1  UNL1       -0.4473
     21 C          59.6847   86.8867    8.9165 C.ar    1  UNL1        0.1812
     22 O          63.4530   91.0514   13.0742 O.3     1  UNL1       -0.4724
     23 C          64.6280   90.6505   13.9160 C.3     1  UNL1        0.2211
     24 C          65.6415   91.6772   14.3267 C.3     1  UNL1        0.0995
     25 N          65.4710   92.4257   15.6154 N.3     1  UNL1       -0.3190
     26 H          66.2458   93.0784   15.7345 H       1  UNL1        0.1189
     27 H          65.4598   91.7657   16.3930 H       1  UNL1        0.1189
     28 C          66.8254   91.9554   13.4487 C.3     1  UNL1        0.0472
     29 C          66.7672   93.0644   12.4403 C.2     1  UNL1       -0.0005
     30 C          66.1209   94.4034   12.6386 C.2     1  UNL1        0.0942
     31 N          66.2993   95.1956   11.3774 N.2     1  UNL1       -0.2482
     32 C          67.0561   94.3462   10.3996 C.2     1  UNL1        0.0631
     33 C          67.5191   94.6019    8.9961 C.3     1  UNL1        0.0717
     34 C          68.2714   93.5405    8.2493 C.2     1  UNL1       -0.0198
     35 C          68.5605   92.2234    8.9062 C.2     1  UNL1       -0.0042
     36 C          68.0974   91.9676   10.3098 C.2     1  UNL1        0.0006
     37 C          67.3452   93.0290   11.0565 C.2     1  UNL1        0.0114
@<TRIPOS>BOND
     1     7     8    1
     2     8     9    2
     3     9    10    1
     4    10    11    2
     5    11    12    1
     6    12    13    1
     7    13    14    2
     8    14     1    1
     9     1     2   ar
    10     2     3   ar
    11     3    22    1
    12    22    23    1
    13    23    24    1
    14    24    25    1
    15    24    28    1
    16    28    29    1
    17    29    30    2
    18    30    31    1
    19    31    32    2
    20    32    33    1
    21    33    34    1
    22    34    35    2
    23    35    36    1
    24    36    37    2
    25     3     4   ar
    26     4     5   ar
    27     5     6   ar
    28     6    17    1
    29    17    18   ar
    30    18    19   ar
    31    19    20   ar
    32    20    21   ar
    33    14    15    1
    34    15    16    2
    35    16     8    1
    36    16    11    1
    37     6     1   ar
    38    21    17   ar
    39    37    29    1
    40    37    32    1
    41    25    26    1
    42    25    27    1
@<TRIPOS>MOLECULE
*****
 37 42 0 0 0
SMALL
GASTEIGER

@<TRIPOS>ATOM
      1 C          63.2380   84.9803   13.8510 C.ar    1  UNL1        0.0381
      2 C          63.5240   86.3221   14.4573 C.ar    1  UNL1        0.0415
      3 C          63.5465   86.4819   15.9487 C.ar    1  UNL1        0.1578
      4 C          63.2829   85.2998   16.8336 C.ar    1  UNL1        0.1356
      5 N          62.9969   83.9579   16.2272 N.ar    1  UNL1       -0.2405
      6 C          62.9745   83.7982   14.7360 C.ar    1  UNL1        0.0861
      7 C          60.3680   87.1797    9.1908 C.3     1  UNL1        0.0557
      8 C          61.4232   86.1361    8.9730 C.2     1  UNL1        0.0996
      9 N          61.8434   85.5700    7.6491 N.2     1  UNL1       -0.1511
     10 N          62.9233   84.5594    7.8988 N.2     1  UNL1       -0.1507
     11 C          63.1706   84.5009    9.3771 C.2     1  UNL1        0.1036
     12 C          64.1202   83.6863   10.2045 C.3     1  UNL1        0.0768
     13 C          64.1427   83.8461   11.6957 C.2     1  UNL1       -0.0005
     14 C          63.2155   84.8205   12.3597 C.2     1  UNL1        0.0790
     15 N          62.2659   85.6352   11.5323 N.2     1  UNL1       -0.2431
     16 C          62.2434   85.4754   10.0411 C.2     1  UNL1        0.1120
     17 C          62.6884   82.4563   14.1296 C.ar    1  UNL1        0.0584
     18 C          63.6879   81.5600   13.4606 C.ar    1  UNL1        0.0453
     19 C          62.9699   80.3249   13.0034 C.ar    1  UNL1        0.1798
     20 O          61.5266   80.4580   13.3897 O.2     1  UNL1       -0.4473
     21 C          61.3527   81.7753   14.0857 C.ar    1  UNL1        0.1812
     22 O          63.8325   87.8237   16.5550 O.3     1  UNL1       -0.4724
     23 C          63.0629   89.0298   16.1043 C.3     1  UNL1        0.2211
     24 C          63.7872   90.3006   15.7721 C.3     1  UNL1        0.0995
     25 N          63.4210   91.5770   16.4699 N.3     1  UNL1       -0.3190
     26 H          64.0098   92.3347   16.1239 H       1  UNL1        0.1189
     27 H          63.5624   91.4681   17.4742 H       1  UNL1        0.1189
     28 C          64.8777   90.2952   14.7422 C.3     1  UNL1        0.0472
     29 C          65.5408   91.5808   14.3451 C.2     1  UNL1       -0.0005
     30 C          66.3914   92.4439   15.2290 C.2     1  UNL1        0.0942
     31 N          66.8459   93.6255   14.4245 N.2     1  UNL1       -0.2482
     32 C          66.2760   93.4927   13.0433 C.2     1  UNL1        0.0631
     33 C          66.3874   94.3591   11.8240 C.3     1  UNL1        0.0717
     34 C          65.6922   93.9619   10.5555 C.2     1  UNL1       -0.0198
     35 C          64.8857   92.6982   10.5064 C.2     1  UNL1       -0.0042
     36 C          64.7743   91.8318   11.7258 C.2     1  UNL1        0.0006
     37 C          65.4695   92.2290   12.9942 C.2     1  UNL1        0.0114
@<TRIPOS>BOND
     1     7     8    1
     2     8     9    2
     3     9    10    1
     4    10    11    2
     5    11    12    1
     6    12    13    1
     7    13    14    2
     8    14     1    1
     9     1     2   ar
    10     2     3   ar
    11     3    22    1
    12    22    23    1
    13    23    24    1
    14    24    25    1
    15    24    28    1
    16    28    29    1
    17    29    30    2
    18    30    31    1
    19    31    32    2
    20    32    33    1
    21    33    34    1
    22    34    35    2
    23    35    36    1
    24    36    37    2
    25     3     4   ar
    26     4     5   ar
    27     5     6   ar
    28     6    17    1
    29    17    18   ar
    30    18    19   ar
    31    19    20   ar
    32    20    21   ar
    33    14    15    1
    34    15    16    2
    35    16     8    1
    36    16    11    1
    37     6     1   ar
    38    21    17   ar
    39    37    29    1
    40    37    32    1
    41    25    26    1
    42    25    27    1
