@<TRIPOS>MOLECULE
*****
 20 22 0 0 0
SMALL
GASTEIGER

@<TRIPOS>ATOM
      1 C          64.8287   92.0652   11.4211 C.ar    1  UNL1        0.0566
      2 C          63.6898   91.5188   10.6123 C.ar    1  UNL1        0.1020
      3 N          62.7062   90.5776   11.2423 N.ar    1  UNL1       -0.2422
      4 C          62.8617   90.1828   12.6810 C.ar    1  UNL1        0.0990
      5 C          64.0007   90.7292   13.4898 C.ar    1  UNL1        0.0238
      6 C          64.9842   91.6704   12.8599 C.ar    1  UNL1        0.0405
      7 C          66.8801   95.0337    9.9909 C.ar    1  UNL1        0.1385
      8 C          67.7717   93.8757    9.6528 C.ar    1  UNL1        0.0375
      9 C          67.1117   92.6228   10.1475 C.ar    1  UNL1        0.0404
     10 C          65.8123   93.0064   10.7912 C.ar    1  UNL1        0.1465
     11 O          65.6692   94.4964   10.6944 O.2     1  UNL1       -0.4563
     12 N          67.7841   96.8551    8.3738 N.3     1  UNL1       -0.3148
     13 C          67.1518   96.4757    9.6800 C.3     1  UNL1        0.1307
     14 H          67.8945   97.8682    8.3310 H       1  UNL1        0.1192
     15 H          67.1892   96.5452    7.6054 H       1  UNL1        0.1192
     16 C          66.1232   92.2168   13.6687 C.ar    1  UNL1        0.1456
     17 C          67.4933   91.6165   13.7799 C.ar    1  UNL1        0.0407
     18 C          68.3089   92.4881   14.6882 C.ar    1  UNL1        0.0438
     19 C          67.4429   93.6272   15.1384 C.ar    1  UNL1        0.1796
     20 O          66.0920   93.4595   14.5082 O.2     1  UNL1       -0.4504
@<TRIPOS>BOND
     1    12    13    1
     2    13     7    1
     3     7     8   ar
     4     8     9   ar
     5     9    10   ar
     6    10     1    1
     7     1     2   ar
     8     2     3   ar
     9     3     4   ar
    10     4     5   ar
    11     5     6   ar
    12     6    16    1
    13    16    17   ar
    14    17    18   ar
    15    18    19   ar
    16    19    20   ar
    17    10    11   ar
    18    11     7   ar
    19     6     1   ar
    20    20    16   ar
    21    12    14    1
    22    12    15    1
@<TRIPOS>MOLECULE
*****
 20 22 0 0 0
SMALL
GASTEIGER

@<TRIPOS>ATOM
      1 C          64.8983   91.7007   12.6283 C.ar    1  UNL1        0.0566
      2 C          63.6377   91.0974   12.0833 C.ar    1  UNL1        0.1020
      3 N          62.8172   90.1764   12.9368 N.ar    1  UNL1       -0.2422
      4 C          63.2572   89.8588   14.3352 C.ar    1  UNL1        0.0990
      5 C          64.5177   90.4621   14.8801 C.ar    1  UNL1        0.0238
      6 C          65.3382   91.3831   14.0267 C.ar    1  UNL1        0.0405
      7 C          67.1862   93.4591   10.0323 C.ar    1  UNL1        0.1385
      8 C          66.7770   94.6192   10.8907 C.ar    1  UNL1        0.0375
      9 C          65.8701   94.1016   11.9677 C.ar    1  UNL1        0.0404
     10 C          65.7189   92.6218   11.7748 C.ar    1  UNL1        0.1465
     11 O          66.5322   92.2247   10.5787 O.2     1  UNL1       -0.4563
     12 N          68.7367   92.2720    8.3186 N.3     1  UNL1       -0.3148
     13 C          68.0906   93.5224    8.8372 C.3     1  UNL1        0.1307
     14 H          69.3135   92.4983    7.5083 H       1  UNL1        0.1192
     15 H          68.0152   91.6042    8.0465 H       1  UNL1        0.1192
     16 C          66.5988   91.9866   14.5716 C.ar    1  UNL1        0.1456
     17 C          66.7013   92.8803   15.7719 C.ar    1  UNL1        0.0407
     18 C          68.1440   93.2483   15.9540 C.ar    1  UNL1        0.0438
     19 C          68.9332   92.5819   14.8662 C.ar    1  UNL1        0.1796
     20 O          67.9782   91.8022   14.0118 O.2     1  UNL1       -0.4504
@<TRIPOS>BOND
     1    12    13    1
     2    13     7    1
     3     7     8   ar
     4     8     9   ar
     5     9    10   ar
     6    10     1    1
     7     1     2   ar
     8     2     3   ar
     9     3     4   ar
    10     4     5   ar
    11     5     6   ar
    12     6    16    1
    13    16    17   ar
    14    17    18   ar
    15    18    19   ar
    16    19    20   ar
    17    10    11   ar
    18    11     7   ar
    19     6     1   ar
    20    20    16   ar
    21    12    14    1
    22    12    15    1
@<TRIPOS>MOLECULE
*****
 20 22 0 0 0
SMALL
GASTEIGER

@<TRIPOS>ATOM
      1 C          63.5307   84.8607   13.5042 C.ar    1  UNL1        0.0566
      2 C          64.0883   83.9061   14.5179 C.ar    1  UNL1        0.1020
      3 N          63.8782   82.4300   14.3532 N.ar    1  UNL1       -0.2422
      4 C          63.1104   81.9087   13.1748 C.ar    1  UNL1        0.0990
      5 C          62.5527   82.8633   12.1611 C.ar    1  UNL1        0.0238
      6 C          62.7628   84.3393   12.3258 C.ar    1  UNL1        0.0405
      7 C          63.7320   88.7293   13.2609 C.ar    1  UNL1        0.1385
      8 C          64.3962   88.4871   14.5839 C.ar    1  UNL1        0.0375
      9 C          64.4016   87.0085   14.8360 C.ar    1  UNL1        0.0404
     10 C          63.7408   86.3368   13.6689 C.ar    1  UNL1        0.1465
     11 O          63.3269   87.4003   12.6954 O.2     1  UNL1       -0.4563
     12 N          63.4456   91.3038   13.4609 N.3     1  UNL1       -0.3148
     13 C          63.5116   90.0658   12.6165 C.3     1  UNL1        0.1307
     14 H          63.2919   92.1155   12.8627 H       1  UNL1        0.1192
     15 H          64.3234   91.4165   13.9681 H       1  UNL1        0.1192
     16 C          62.2052   85.2940   11.3121 C.ar    1  UNL1        0.1456
     17 C          62.6721   85.4473    9.8949 C.ar    1  UNL1        0.0407
     18 C          61.8381   86.5111    9.2446 C.ar    1  UNL1        0.0438
     19 C          60.8557   87.0153   10.2599 C.ar    1  UNL1        0.1796
     20 O          61.0826   86.2631   11.5376 O.2     1  UNL1       -0.4504
@<TRIPOS>BOND
     1    12    13    1
     2    13     7    1
     3     7     8   ar
     4     8     9   ar
     5     9    10   ar
     6    10     1    1
     7     1     2   ar
     8     2     3   ar
     9     3     4   ar
    10     4     5   ar
    11     5     6   ar
    12     6    16    1
    13    16    17   ar
    14    17    18   ar
    15    18    19   ar
    16    19    20   ar
    17    10    11   ar
    18    11     7   ar
    19     6     1   ar
    20    20    16   ar
    21    12    14    1
    22    12    15    1
@<TRIPOS>MOLECULE
*****
 20 22 0 0 0
SMALL
GASTEIGER

@<TRIPOS>ATOM
      1 C          60.8661   88.4148    9.4540 C.ar    1  UNL1        0.0566
      2 C          60.0437   89.2279    8.4988 C.ar    1  UNL1        0.1020
      3 N          59.1591   88.5430    7.4997 N.ar    1  UNL1       -0.2422
      4 C          59.0968   87.0449    7.4558 C.ar    1  UNL1        0.0990
      5 C          59.9192   86.2318    8.4110 C.ar    1  UNL1        0.0238
      6 C          60.8038   86.9167    9.4101 C.ar    1  UNL1        0.0405
      7 C          62.7565   89.7998   12.5481 C.ar    1  UNL1        0.1385
      8 C          63.4678   90.5076   11.4331 C.ar    1  UNL1        0.0375
      9 C          62.8462   90.0749   10.1384 C.ar    1  UNL1        0.0404
     10 C          61.7508   89.0997   10.4532 C.ar    1  UNL1        0.1465
     11 O          61.6954   88.9297   11.9424 O.2     1  UNL1       -0.4563
     12 N          63.4519   91.2705   14.5738 N.3     1  UNL1       -0.3148
     13 C          63.0542   89.9378   14.0118 C.3     1  UNL1        0.1307
     14 H          63.6152   91.1815   15.5767 H       1  UNL1        0.1192
     15 H          62.7050   91.9454   14.4095 H       1  UNL1        0.1192
     16 C          61.6263   86.1036   10.3654 C.ar    1  UNL1        0.1456
     17 C          62.7559   85.1877    9.9978 C.ar    1  UNL1        0.0407
     18 C          63.2912   84.5817   11.2612 C.ar    1  UNL1        0.0438
     19 C          62.4924   85.1230   12.4097 C.ar    1  UNL1        0.1796
     20 O          61.4634   86.0636   11.8560 O.2     1  UNL1       -0.4504
@<TRIPOS>BOND
     1    12    13    1
     2    13     7    1
     3     7     8   ar
     4     8     9   ar
     5     9    10   ar
     6    10     1    1
     7     1     2   ar
     8     2     3   ar
     9     3     4   ar
    10     4     5   ar
    11     5     6   ar
    12     6    16    1
    13    16    17   ar
    14    17    18   ar
    15    18    19   ar
    16    19    20   ar
    17    10    11   ar
    18    11     7   ar
    19     6     1   ar
    20    20    16   ar
    21    12    14    1
    22    12    15    1
@<TRIPOS>MOLECULE
*****
 20 22 0 0 0
SMALL
GASTEIGER

@<TRIPOS>ATOM
      1 C          60.8119   86.8419    9.3007 C.ar    1  UNL1        0.0566
      2 C          59.9973   86.1753    8.2321 C.ar    1  UNL1        0.1020
      3 N          59.1678   87.0028    7.2956 N.ar    1  UNL1       -0.2422
      4 C          59.1530   88.4969    7.4277 C.ar    1  UNL1        0.0990
      5 C          59.9676   89.1635    8.4963 C.ar    1  UNL1        0.0238
      6 C          60.7971   88.3360    9.4329 C.ar    1  UNL1        0.0405
      7 C          62.5134   84.9914   12.2582 C.ar    1  UNL1        0.1385
      8 C          63.3227   84.4905   11.0988 C.ar    1  UNL1        0.0375
      9 C          62.7838   85.1228    9.8498 C.ar    1  UNL1        0.0404
     10 C          61.6415   86.0144   10.2373 C.ar    1  UNL1        0.1465
     11 O          61.4743   85.9331   11.7257 O.2     1  UNL1       -0.4563
     12 N          63.4656   85.5305   14.6146 N.3     1  UNL1       -0.3148
     13 C          62.7088   84.6163   13.6973 C.3     1  UNL1        0.1307
     14 H          63.5016   85.1217   15.5483 H       1  UNL1        0.1192
     15 H          62.9955   86.4347   14.6572 H       1  UNL1        0.1192
     16 C          61.6117   89.0025   10.5016 C.ar    1  UNL1        0.1456
     17 C          62.8439   89.8298   10.2839 C.ar    1  UNL1        0.0407
     18 C          63.3309   90.2974   11.6234 C.ar    1  UNL1        0.0438
     19 C          62.3997   89.7591   12.6689 C.ar    1  UNL1        0.1796
     20 O          61.3372   88.9588   11.9756 O.2     1  UNL1       -0.4504
@<TRIPOS>BOND
     1    12    13    1
     2    13     7    1
     3     7     8   ar
     4     8     9   ar
     5     9    10   ar
     6    10     1    1
     7     1     2   ar
     8     2     3   ar
     9     3     4   ar
    10     4     5   ar
    11     5     6   ar
    12     6    16    1
    13    16    17   ar
    14    17    18   ar
    15    18    19   ar
    16    19    20   ar
    17    10    11   ar
    18    11     7   ar
    19     6     1   ar
    20    20    16   ar
    21    12    14    1
    22    12    15    1
@<TRIPOS>MOLECULE
*****
 20 22 0 0 0
SMALL
GASTEIGER

@<TRIPOS>ATOM
      1 C          63.8114   90.5922   13.1327 C.ar    1  UNL1        0.0566
      2 C          62.8976   90.3030   11.9790 C.ar    1  UNL1        0.1020
      3 N          63.0989   91.0048   10.6687 N.ar    1  UNL1       -0.2422
      4 C          64.2139   91.9958   10.5122 C.ar    1  UNL1        0.0990
      5 C          65.1277   92.2850   11.6660 C.ar    1  UNL1        0.0238
      6 C          64.9264   91.5832   12.9763 C.ar    1  UNL1        0.0405
      7 C          63.3646   88.1477   16.1144 C.ar    1  UNL1        0.1385
      8 C          63.2362   89.4733   16.8047 C.ar    1  UNL1        0.0375
      9 C          63.3880   90.5503   15.7717 C.ar    1  UNL1        0.0404
     10 C          63.6101   89.8904   14.4431 C.ar    1  UNL1        0.1465
     11 O          63.5957   88.4055   14.6549 O.2     1  UNL1       -0.4563
     12 N          61.9930   86.3579   17.4050 N.3     1  UNL1       -0.3148
     13 C          63.2772   86.8008   16.7688 C.3     1  UNL1        0.1307
     14 H          62.1126   85.4244   17.7982 H       1  UNL1        0.1192
     15 H          61.2542   86.3387   16.7020 H       1  UNL1        0.1192
     16 C          65.8403   91.8724   14.1301 C.ar    1  UNL1        0.1456
     17 C          67.1833   91.2486   14.3691 C.ar    1  UNL1        0.0407
     18 C          67.7445   91.8269   15.6343 C.ar    1  UNL1        0.0438
     19 C          66.7483   92.8081   16.1773 C.ar    1  UNL1        0.1796
     20 O          65.5714   92.8363   15.2476 O.2     1  UNL1       -0.4504
@<TRIPOS>BOND
     1    12    13    1
     2    13     7    1
     3     7     8   ar
     4     8     9   ar
     5     9    10   ar
     6    10     1    1
     7     1     2   ar
     8     2     3   ar
     9     3     4   ar
    10     4     5   ar
    11     5     6   ar
    12     6    16    1
    13    16    17   ar
    14    17    18   ar
    15    18    19   ar
    16    19    20   ar
    17    10    11   ar
    18    11     7   ar
    19     6     1   ar
    20    20    16   ar
    21    12    14    1
    22    12    15    1
@<TRIPOS>MOLECULE
*****
 20 22 0 0 0
SMALL
GASTEIGER

@<TRIPOS>ATOM
      1 C          63.8170   91.1199   11.8164 C.ar    1  UNL1        0.0566
      2 C          64.2705   91.9968   10.6871 C.ar    1  UNL1        0.1020
      3 N          65.4619   92.8908   10.8636 N.ar    1  UNL1       -0.2422
      4 C          66.2000   92.9078   12.1693 C.ar    1  UNL1        0.0990
      5 C          65.7466   92.0309   13.2986 C.ar    1  UNL1        0.0238
      6 C          64.5551   91.1369   13.1222 C.ar    1  UNL1        0.0405
      7 C          60.3737   89.3293   11.7659 C.ar    1  UNL1        0.1385
      8 C          61.2103   88.3710   10.9711 C.ar    1  UNL1        0.0375
      9 C          62.6020   88.9252   10.8933 C.ar    1  UNL1        0.0404
     10 C          62.6255   90.2259   11.6400 C.ar    1  UNL1        0.1465
     11 O          61.2483   90.4757   12.1793 O.2     1  UNL1       -0.4563
     12 N          58.5032   88.5671   13.4001 N.3     1  UNL1       -0.3148
     13 C          58.9179   89.1693   12.0904 C.3     1  UNL1        0.1307
     14 H          57.4850   88.5351   13.4523 H       1  UNL1        0.1192
     15 H          58.8652   89.1357   14.1656 H       1  UNL1        0.1192
     16 C          64.1016   90.2599   14.2515 C.ar    1  UNL1        0.1456
     17 C          64.3367   88.7833   14.3703 C.ar    1  UNL1        0.0407
     18 C          63.7139   88.3164   15.6525 C.ar    1  UNL1        0.0438
     19 C          63.0938   89.5046   16.3262 C.ar    1  UNL1        0.1796
     20 O          63.3334   90.7057   15.4603 O.2     1  UNL1       -0.4504
@<TRIPOS>BOND
     1    12    13    1
     2    13     7    1
     3     7     8   ar
     4     8     9   ar
     5     9    10   ar
     6    10     1    1
     7     1     2   ar
     8     2     3   ar
     9     3     4   ar
    10     4     5   ar
    11     5     6   ar
    12     6    16    1
    13    16    17   ar
    14    17    18   ar
    15    18    19   ar
    16    19    20   ar
    17    10    11   ar
    18    11     7   ar
    19     6     1   ar
    20    20    16   ar
    21    12    14    1
    22    12    15    1
@<TRIPOS>MOLECULE
*****
 20 22 0 0 0
SMALL
GASTEIGER

@<TRIPOS>ATOM
      1 C          62.8667   83.9391   12.4384 C.ar    1  UNL1        0.0566
      2 C          62.9611   82.9454   11.3188 C.ar    1  UNL1        0.1020
      3 N          63.1364   81.4871   11.6232 N.ar    1  UNL1       -0.2422
      4 C          63.2174   81.0226   13.0471 C.ar    1  UNL1        0.0990
      5 C          63.1230   82.0164   14.1667 C.ar    1  UNL1        0.0238
      6 C          62.9477   83.4746   13.8623 C.ar    1  UNL1        0.0405
      7 C          62.9099   87.8135   12.2082 C.ar    1  UNL1        0.1385
      8 C          61.9331   87.4696   11.1231 C.ar    1  UNL1        0.0375
      9 C          61.7980   85.9764   11.0772 C.ar    1  UNL1        0.0404
     10 C          62.6914   85.3975   12.1340 C.ar    1  UNL1        0.1465
     11 O          63.3785   86.5329   12.8330 O.2     1  UNL1       -0.4563
     12 N          62.4531   90.0441   13.4596 N.3     1  UNL1       -0.3148
     13 C          63.3422   89.1955   12.5998 C.3     1  UNL1        0.1307
     14 H          62.9007   90.9454   13.6261 H       1  UNL1        0.1192
     15 H          62.2927   89.5743   14.3507 H       1  UNL1        0.1192
     16 C          62.8533   84.4685   14.9820 C.ar    1  UNL1        0.1456
     17 C          64.0081   85.1372   15.6670 C.ar    1  UNL1        0.0407
     18 C          63.4560   86.0501   16.7214 C.ar    1  UNL1        0.0438
     19 C          61.9600   85.9455   16.6882 C.ar    1  UNL1        0.1796
     20 O          61.5875   84.9680   15.6131 O.2     1  UNL1       -0.4504
@<TRIPOS>BOND
     1    12    13    1
     2    13     7    1
     3     7     8   ar
     4     8     9   ar
     5     9    10   ar
     6    10     1    1
     7     1     2   ar
     8     2     3   ar
     9     3     4   ar
    10     4     5   ar
    11     5     6   ar
    12     6    16    1
    13    16    17   ar
    14    17    18   ar
    15    18    19   ar
    16    19    20   ar
    17    10    11   ar
    18    11     7   ar
    19     6     1   ar
    20    20    16   ar
    21    12    14    1
    22    12    15    1
@<TRIPOS>MOLECULE
*****
 20 22 0 0 0
SMALL
GASTEIGER

@<TRIPOS>ATOM
      1 C          62.7721   84.6118   12.3057 C.ar    1  UNL1        0.0566
      2 C          62.5681   83.1320   12.1700 C.ar    1  UNL1        0.1020
      3 N          63.1298   82.1997   13.2021 N.ar    1  UNL1       -0.2422
      4 C          63.8956   82.7473   14.3699 C.ar    1  UNL1        0.0990
      5 C          64.0997   84.2271   14.5056 C.ar    1  UNL1        0.0238
      6 C          63.5379   85.1594   13.4734 C.ar    1  UNL1        0.0405
      7 C          60.8795   87.2653   10.1979 C.ar    1  UNL1        0.1385
      8 C          61.8124   86.6922    9.1725 C.ar    1  UNL1        0.0375
      9 C          62.6348   85.6284    9.8373 C.ar    1  UNL1        0.0404
     10 C          62.2103   85.5441   11.2735 C.ar    1  UNL1        0.1465
     11 O          61.1255   86.5558   11.4964 O.2     1  UNL1       -0.4563
     12 N          60.1248   89.3901    8.9073 N.3     1  UNL1       -0.3148
     13 C          59.8768   88.3565    9.9656 C.3     1  UNL1        0.1307
     14 H          59.3469   90.0495    8.8872 H       1  UNL1        0.1192
     15 H          60.2071   88.9336    7.9989 H       1  UNL1        0.1192
     16 C          63.7419   86.6393   13.6091 C.ar    1  UNL1        0.1456
     17 C          64.3676   87.3395   14.7788 C.ar    1  UNL1        0.0407
     18 C          64.3684   88.8117   14.4914 C.ar    1  UNL1        0.0438
     19 C          63.7432   89.0214   13.1441 C.ar    1  UNL1        0.1796
     20 O          63.3561   87.6787   12.5988 O.2     1  UNL1       -0.4504
@<TRIPOS>BOND
     1    12    13    1
     2    13     7    1
     3     7     8   ar
     4     8     9   ar
     5     9    10   ar
     6    10     1    1
     7     1     2   ar
     8     2     3   ar
     9     3     4   ar
    10     4     5   ar
    11     5     6   ar
    12     6    16    1
    13    16    17   ar
    14    17    18   ar
    15    18    19   ar
    16    19    20   ar
    17    10    11   ar
    18    11     7   ar
    19     6     1   ar
    20    20    16   ar
    21    12    14    1
    22    12    15    1
