@<TRIPOS>MOLECULE
*****
 32 35 0 0 0
SMALL
GASTEIGER

@<TRIPOS>ATOM
      1 C          59.6024   94.1695   -0.8885 C.2     1  UNL1       -0.0139
      2 C          59.4890   95.4057   -0.0467 C.2     1  UNL1        0.0001
      3 C          59.6362   95.3146    1.4432 C.2     1  UNL1        0.0498
      4 C          59.8967   93.9871    2.0913 C.2     1  UNL1        0.2321
      5 N          60.0855   93.5903    3.5256 N.2     1  UNL1       -0.0308
      6 C          60.3156   92.1087    3.5701 C.2     1  UNL1        0.3755
      7 N          60.2689   91.5899    2.1634 N.2     1  UNL1       -0.0347
      8 C          60.0100   92.7509    1.2495 C.2     1  UNL1        0.2178
      9 C          59.8629   92.8420   -0.2404 C.3     1  UNL1        0.1040
     10 C          58.1169   94.0297   -3.0155 C.ar    1  UNL1        0.0014
     11 C          57.9697   94.1208   -4.5055 C.ar    1  UNL1       -0.0021
     12 C          59.1608   94.4428   -5.3586 C.ar    1  UNL1       -0.0002
     13 C          60.4991   94.6737   -4.7216 C.ar    1  UNL1       -0.0000
     14 C          60.6463   94.5825   -3.2316 C.ar    1  UNL1       -0.0005
     15 C          59.4552   94.2606   -2.3786 C.ar    1  UNL1       -0.0053
     16 C          56.6638   95.1727   -1.9752 C.3     1  UNL1        0.0339
     17 C          56.9258   93.7077   -2.1625 C.3     1  UNL1        0.1071
     18 C          57.1878   92.2428   -2.3497 C.3     1  UNL1        0.0339
     19 O          55.7348   93.3857   -1.3094 O.3     1  UNL1       -0.3827
     20 H          55.3183   94.2095   -1.0114 H       1  UNL1        0.2107
     21 C          60.5510   91.2896    4.8045 C.2     1  UNL1        0.0958
     22 C          59.4316   90.4844    5.3950 C.2     1  UNL1        0.0079
     23 C          59.6669   89.6654    6.6294 C.ar    1  UNL1        0.0002
     24 C          59.3344   88.2027    6.6337 C.ar    1  UNL1       -0.0001
     25 C          59.5697   87.3837    7.8681 C.ar    1  UNL1        0.0039
     26 C          60.1376   88.0273    9.0983 C.ar    1  UNL1        0.0714
     27 C          60.4701   89.4900    9.0940 C.ar    1  UNL1        0.0039
     28 C          60.2348   90.3090    7.8595 C.ar    1  UNL1       -0.0001
     29 C          60.3729   87.2083   10.3327 C.3     1  UNL1        0.4186
     30 F          60.6082   86.3892   11.5670 F       1  UNL1       -0.1659
     31 F          60.6870   86.0144    9.4806 F       1  UNL1       -0.1659
     32 F          60.0588   88.4022   11.1847 F       1  UNL1       -0.1659
@<TRIPOS>BOND
     1    16    17    1
     2    17    18    1
     3    17    19    1
     4    17    10    1
     5    10    11   ar
     6    11    12   ar
     7    12    13   ar
     8    13    14   ar
     9    14    15   ar
    10    15     1    1
    11     1     2    2
    12     2     3    1
    13     3     4    2
    14     4     5    1
    15     5     6    2
    16     6    21    1
    17    21    22    2
    18    22    23    1
    19    23    24   ar
    20    24    25   ar
    21    25    26   ar
    22    26    29    1
    23    29    30    1
    24    29    31    1
    25    29    32    1
    26    26    27   ar
    27    27    28   ar
    28     6     7    1
    29     7     8    2
    30     8     9    1
    31    15    10   ar
    32     9     1    1
    33     8     4    1
    34    28    23   ar
    35    19    20    1
@<TRIPOS>MOLECULE
*****
 32 35 0 0 0
SMALL
GASTEIGER

@<TRIPOS>ATOM
      1 C          64.8515   90.8986   13.9191 C.2     1  UNL1       -0.0139
      2 C          63.7981   91.3629   12.9576 C.2     1  UNL1        0.0001
      3 C          62.9623   90.3600   12.2190 C.2     1  UNL1        0.0498
      4 C          63.1799   88.8927   12.4420 C.2     1  UNL1        0.2321
      5 N          62.5149   87.6798   11.8617 N.2     1  UNL1       -0.0308
      6 C          63.1573   86.4659   12.4647 C.2     1  UNL1        0.3755
      7 N          64.2194   86.9285   13.4176 N.2     1  UNL1       -0.0347
      8 C          64.2333   88.4284   13.4036 C.2     1  UNL1        0.2178
      9 C          65.0691   89.4313   14.1421 C.3     1  UNL1        0.1040
     10 C          66.7144   92.7097   13.9213 C.ar    1  UNL1        0.0014
     11 C          67.5502   93.7126   14.6599 C.ar    1  UNL1       -0.0021
     12 C          67.3591   93.9074   16.1349 C.ar    1  UNL1       -0.0002
     13 C          66.3322   93.0993   16.8713 C.ar    1  UNL1       -0.0000
     14 C          65.4963   92.0963   16.1327 C.ar    1  UNL1       -0.0005
     15 C          65.6874   91.9015   14.6577 C.ar    1  UNL1       -0.0053
     16 C          65.8250   93.5189   12.1737 C.3     1  UNL1        0.0339
     17 C          66.9055   92.5148   12.4463 C.3     1  UNL1        0.1071
     18 C          67.9859   91.5107   12.7190 C.3     1  UNL1        0.0339
     19 O          67.0966   92.3200   10.9714 O.3     1  UNL1       -0.3827
     20 H          66.4790   92.8902   10.4872 H       1  UNL1        0.2107
     21 C          62.8004   85.0397   12.1670 C.2     1  UNL1        0.0958
     22 C          63.8815   84.0089   12.0300 C.2     1  UNL1        0.0079
     23 C          63.5246   82.5827   11.7324 C.ar    1  UNL1        0.0002
     24 C          63.0568   81.6807   12.8358 C.ar    1  UNL1       -0.0001
     25 C          62.7000   80.2545   12.5381 C.ar    1  UNL1        0.0039
     26 C          62.8109   79.7303   11.1370 C.ar    1  UNL1        0.0714
     27 C          63.2787   80.6324   10.0337 C.ar    1  UNL1        0.0039
     28 C          63.6356   82.0586   10.3314 C.ar    1  UNL1       -0.0001
     29 C          62.4541   78.3041   10.8394 C.3     1  UNL1        0.4186
     30 F          62.0972   76.8780   10.5418 F       1  UNL1       -0.1659
     31 F          62.3568   78.0217   12.3093 F       1  UNL1       -0.1659
     32 F          62.5514   78.5866    9.3694 F       1  UNL1       -0.1659
@<TRIPOS>BOND
     1    16    17    1
     2    17    18    1
     3    17    19    1
     4    17    10    1
     5    10    11   ar
     6    11    12   ar
     7    12    13   ar
     8    13    14   ar
     9    14    15   ar
    10    15     1    1
    11     1     2    2
    12     2     3    1
    13     3     4    2
    14     4     5    1
    15     5     6    2
    16     6    21    1
    17    21    22    2
    18    22    23    1
    19    23    24   ar
    20    24    25   ar
    21    25    26   ar
    22    26    29    1
    23    29    30    1
    24    29    31    1
    25    29    32    1
    26    26    27   ar
    27    27    28   ar
    28     6     7    1
    29     7     8    2
    30     8     9    1
    31    15    10   ar
    32     9     1    1
    33     8     4    1
    34    28    23   ar
    35    19    20    1
@<TRIPOS>MOLECULE
*****
 32 35 0 0 0
SMALL
GASTEIGER

@<TRIPOS>ATOM
      1 C          59.6281   92.9419    3.3743 C.2     1  UNL1       -0.0139
      2 C          58.1548   92.7144    3.5406 C.2     1  UNL1        0.0001
      3 C          57.6605   91.6711    4.4983 C.2     1  UNL1        0.0498
      4 C          58.6394   90.8554    5.2897 C.2     1  UNL1        0.2321
      5 N          58.4501   89.7642    6.3015 N.2     1  UNL1       -0.0308
      6 C          59.8065   89.3175    6.7605 C.2     1  UNL1        0.3755
      7 N          60.8339   90.1324    6.0324 N.2     1  UNL1       -0.0347
      8 C          60.1126   91.0829    5.1234 C.2     1  UNL1        0.2178
      9 C          60.6070   92.1262    4.1657 C.3     1  UNL1        0.1040
     10 C          60.2624   93.6594    0.9592 C.ar    1  UNL1        0.0014
     11 C          60.7567   94.7026    0.0015 C.ar    1  UNL1       -0.0021
     12 C          61.1113   96.0718    0.5012 C.ar    1  UNL1       -0.0002
     13 C          60.9714   96.3976    1.9587 C.ar    1  UNL1       -0.0000
     14 C          60.4770   95.3543    2.9164 C.ar    1  UNL1       -0.0005
     15 C          60.1225   93.9852    2.4166 C.ar    1  UNL1       -0.0053
     16 C          58.5211   92.7653    0.1414 C.3     1  UNL1        0.0339
     17 C          59.9078   92.2902    0.4594 C.3     1  UNL1        0.1071
     18 C          61.2945   91.8150    0.7774 C.3     1  UNL1        0.0339
     19 O          59.5533   90.9210   -0.0403 O.3     1  UNL1       -0.3827
     20 H          58.6314   90.9156   -0.3420 H       1  UNL1        0.2107
     21 C          60.0862   88.2441    7.7704 C.2     1  UNL1        0.0958
     22 C          61.4406   88.1490    8.4081 C.2     1  UNL1        0.0079
     23 C          61.7204   87.0758    9.4179 C.ar    1  UNL1        0.0002
     24 C          61.2293   87.2256   10.8273 C.ar    1  UNL1       -0.0001
     25 C          61.5091   86.1523   11.8371 C.ar    1  UNL1        0.0039
     26 C          62.2801   84.9292   11.4375 C.ar    1  UNL1        0.0714
     27 C          62.7712   84.7794   10.0282 C.ar    1  UNL1        0.0039
     28 C          62.4914   85.8527    9.0183 C.ar    1  UNL1       -0.0001
     29 C          62.5599   83.8559   12.4473 C.3     1  UNL1        0.4186
     30 F          62.8397   82.7826   13.4571 F       1  UNL1       -0.1659
     31 F          62.3747   82.8106   11.3876 F       1  UNL1       -0.1659
     32 F          62.7451   84.9013   13.5071 F       1  UNL1       -0.1659
@<TRIPOS>BOND
     1    16    17    1
     2    17    18    1
     3    17    19    1
     4    17    10    1
     5    10    11   ar
     6    11    12   ar
     7    12    13   ar
     8    13    14   ar
     9    14    15   ar
    10    15     1    1
    11     1     2    2
    12     2     3    1
    13     3     4    2
    14     4     5    1
    15     5     6    2
    16     6    21    1
    17    21    22    2
    18    22    23    1
    19    23    24   ar
    20    24    25   ar
    21    25    26   ar
    22    26    29    1
    23    29    30    1
    24    29    31    1
    25    29    32    1
    26    26    27   ar
    27    27    28   ar
    28     6     7    1
    29     7     8    2
    30     8     9    1
    31    15    10   ar
    32     9     1    1
    33     8     4    1
    34    28    23   ar
    35    19    20    1
@<TRIPOS>MOLECULE
*****
 32 35 0 0 0
SMALL
GASTEIGER

@<TRIPOS>ATOM
      1 C          62.0039   85.0630   11.3998 C.2     1  UNL1       -0.0139
      2 C          61.5522   86.1161   12.3676 C.2     1  UNL1        0.0001
      3 C          60.9635   87.3987   11.8594 C.2     1  UNL1        0.0498
      4 C          60.8265   87.6282   10.3834 C.2     1  UNL1        0.2321
      5 N          60.2883   88.7840    9.5930 N.2     1  UNL1       -0.0308
      6 C          60.4075   88.4450    8.1367 C.2     1  UNL1        0.3755
      7 N          61.0192   87.0798    8.0271 N.2     1  UNL1       -0.0347
      8 C          61.2782   86.5750    9.4156 C.2     1  UNL1        0.2178
      9 C          61.8669   85.2924    9.9238 C.3     1  UNL1        0.1040
     10 C          63.2263   83.7323   13.2667 C.ar    1  UNL1        0.0014
     11 C          63.8151   82.4497   13.7748 C.ar    1  UNL1       -0.0021
     12 C          63.7702   81.2150   12.9242 C.ar    1  UNL1       -0.0002
     13 C          63.1366   81.2629   11.5654 C.ar    1  UNL1       -0.0000
     14 C          62.5478   82.5456   11.0573 C.ar    1  UNL1       -0.0005
     15 C          62.5927   83.7803   11.9079 C.ar    1  UNL1       -0.0053
     16 C          62.0762   84.4826   14.8836 C.3     1  UNL1        0.0339
     17 C          63.2711   84.9670   14.1173 C.3     1  UNL1        0.1071
     18 C          64.4661   85.4515   13.3510 C.3     1  UNL1        0.0339
     19 O          63.3160   86.2017   14.9678 O.3     1  UNL1       -0.3827
     20 H          62.5971   86.1725   15.6184 H       1  UNL1        0.2107
     21 C          59.9884   89.3180    6.9911 C.2     1  UNL1        0.0958
     22 C          61.0145   90.1136    6.2400 C.2     1  UNL1        0.0079
     23 C          60.5956   90.9866    5.0945 C.ar    1  UNL1        0.0002
     24 C          61.6129   91.4529    4.0957 C.ar    1  UNL1       -0.0001
     25 C          61.1939   92.3259    2.9501 C.ar    1  UNL1        0.0039
     26 C          59.7576   92.7326    2.8033 C.ar    1  UNL1        0.0714
     27 C          58.7402   92.2663    3.8021 C.ar    1  UNL1        0.0039
     28 C          59.1593   91.3933    4.9477 C.ar    1  UNL1       -0.0001
     29 C          59.3386   93.6056    1.6578 C.3     1  UNL1        0.4186
     30 F          58.9196   94.4785    0.5122 F       1  UNL1       -0.1659
     31 F          58.6937   92.4251    0.9941 F       1  UNL1       -0.1659
     32 F          59.9835   94.7861    2.3216 F       1  UNL1       -0.1659
@<TRIPOS>BOND
     1    16    17    1
     2    17    18    1
     3    17    19    1
     4    17    10    1
     5    10    11   ar
     6    11    12   ar
     7    12    13   ar
     8    13    14   ar
     9    14    15   ar
    10    15     1    1
    11     1     2    2
    12     2     3    1
    13     3     4    2
    14     4     5    1
    15     5     6    2
    16     6    21    1
    17    21    22    2
    18    22    23    1
    19    23    24   ar
    20    24    25   ar
    21    25    26   ar
    22    26    29    1
    23    29    30    1
    24    29    31    1
    25    29    32    1
    26    26    27   ar
    27    27    28   ar
    28     6     7    1
    29     7     8    2
    30     8     9    1
    31    15    10   ar
    32     9     1    1
    33     8     4    1
    34    28    23   ar
    35    19    20    1
@<TRIPOS>MOLECULE
*****
 32 35 0 0 0
SMALL
GASTEIGER

@<TRIPOS>ATOM
      1 C          59.5995   93.0180    3.4047 C.2     1  UNL1       -0.0139
      2 C          58.1343   92.7704    3.6093 C.2     1  UNL1        0.0001
      3 C          57.6796   91.7099    4.5676 C.2     1  UNL1        0.0498
      4 C          58.6901   90.8969    5.3212 C.2     1  UNL1        0.2321
      5 N          58.5424   89.7915    6.3246 N.2     1  UNL1       -0.0308
      6 C          59.9164   89.3560    6.7400 C.2     1  UNL1        0.3755
      7 N          60.9131   90.1922    5.9934 N.2     1  UNL1       -0.0347
      8 C          60.1553   91.1444    5.1166 C.2     1  UNL1        0.2178
      9 C          60.6100   92.2050    4.1583 C.3     1  UNL1        0.1040
     10 C          60.2103   93.7563    0.9897 C.ar    1  UNL1        0.0014
     11 C          60.6651   94.8168    0.0314 C.ar    1  UNL1       -0.0021
     12 C          60.9638   96.1998    0.5297 C.ar    1  UNL1       -0.0002
     13 C          60.8078   96.5222    1.9863 C.ar    1  UNL1       -0.0000
     14 C          60.3530   95.4615    2.9446 C.ar    1  UNL1       -0.0005
     15 C          60.0543   94.0786    2.4463 C.ar    1  UNL1       -0.0053
     16 C          58.4873   92.7712    0.2409 C.3     1  UNL1        0.0339
     17 C          59.9116   92.3733    0.4914 C.3     1  UNL1        0.1071
     18 C          61.3360   91.9754    0.7420 C.3     1  UNL1        0.0339
     19 O          59.6130   90.9904   -0.0068 O.3     1  UNL1       -0.3827
     20 H          58.6801   90.9349   -0.2670 H       1  UNL1        0.2107
     21 C          60.2372   88.2743    7.7284 C.2     1  UNL1        0.0958
     22 C          61.3234   88.4825    8.7418 C.2     1  UNL1        0.0079
     23 C          61.6443   87.4008    9.7302 C.ar    1  UNL1        0.0002
     24 C          61.7319   85.9734    9.2778 C.ar    1  UNL1       -0.0001
     25 C          62.0528   84.8917   10.2662 C.ar    1  UNL1        0.0039
     26 C          62.2861   85.2375   11.7071 C.ar    1  UNL1        0.0714
     27 C          62.1985   86.6649   12.1595 C.ar    1  UNL1        0.0039
     28 C          61.8776   87.7466   11.1710 C.ar    1  UNL1       -0.0001
     29 C          62.6070   84.1558   12.6955 C.3     1  UNL1        0.4186
     30 F          62.9279   83.0742   13.6839 F       1  UNL1       -0.1659
     31 F          62.6229   85.1702   13.8004 F       1  UNL1       -0.1659
     32 F          62.5911   83.1415   11.5905 F       1  UNL1       -0.1659
@<TRIPOS>BOND
     1    16    17    1
     2    17    18    1
     3    17    19    1
     4    17    10    1
     5    10    11   ar
     6    11    12   ar
     7    12    13   ar
     8    13    14   ar
     9    14    15   ar
    10    15     1    1
    11     1     2    2
    12     2     3    1
    13     3     4    2
    14     4     5    1
    15     5     6    2
    16     6    21    1
    17    21    22    2
    18    22    23    1
    19    23    24   ar
    20    24    25   ar
    21    25    26   ar
    22    26    29    1
    23    29    30    1
    24    29    31    1
    25    29    32    1
    26    26    27   ar
    27    27    28   ar
    28     6     7    1
    29     7     8    2
    30     8     9    1
    31    15    10   ar
    32     9     1    1
    33     8     4    1
    34    28    23   ar
    35    19    20    1
@<TRIPOS>MOLECULE
*****
 32 35 0 0 0
SMALL
GASTEIGER

@<TRIPOS>ATOM
      1 C          62.4157   84.5536   12.4165 C.2     1  UNL1       -0.0139
      2 C          62.9872   85.6366   13.2827 C.2     1  UNL1        0.0001
      3 C          63.0174   87.0532   12.7904 C.2     1  UNL1        0.0498
      4 C          62.4761   87.3867   11.4318 C.2     1  UNL1        0.2321
      5 N          62.3721   88.6824   10.6831 N.2     1  UNL1       -0.0308
      6 C          61.7363   88.4001    9.3542 C.2     1  UNL1        0.3755
      7 N          61.4474   86.9299    9.2816 N.2     1  UNL1       -0.0347
      8 C          61.9046   86.3036   10.5656 C.2     1  UNL1        0.2178
      9 C          61.8744   84.8871   11.0579 C.3     1  UNL1        0.1040
     10 C          63.2212   82.0903   12.2336 C.ar    1  UNL1        0.0014
     11 C          63.1910   80.6737   12.7258 C.ar    1  UNL1       -0.0021
     12 C          62.3251   80.3038   13.8935 C.ar    1  UNL1       -0.0002
     13 C          61.4894   81.3505   14.5689 C.ar    1  UNL1       -0.0000
     14 C          61.5196   82.7671   14.0765 C.ar    1  UNL1       -0.0005
     15 C          62.3855   83.1370   12.9089 C.ar    1  UNL1       -0.0053
     16 C          63.1871   81.6826   10.1520 C.3     1  UNL1        0.0339
     17 C          64.0871   82.4602   11.0659 C.3     1  UNL1        0.1071
     18 C          64.9871   83.2379   11.9797 C.3     1  UNL1        0.0339
     19 O          64.9530   82.8302    9.8983 O.3     1  UNL1       -0.3827
     20 H          64.5909   82.4358    9.0894 H       1  UNL1        0.2107
     21 C          61.4412   89.4105    8.2855 C.2     1  UNL1        0.0958
     22 C          60.4590   89.0876    7.1988 C.2     1  UNL1        0.0079
     23 C          60.1639   90.0979    6.1301 C.ar    1  UNL1        0.0002
     24 C          61.2753   90.6339    5.2772 C.ar    1  UNL1       -0.0001
     25 C          60.9802   91.6443    4.2086 C.ar    1  UNL1        0.0039
     26 C          59.5736   92.1186    3.9927 C.ar    1  UNL1        0.0714
     27 C          58.4621   91.5826    4.8456 C.ar    1  UNL1        0.0039
     28 C          58.7573   90.5722    5.9143 C.ar    1  UNL1       -0.0001
     29 C          59.2785   93.1290    2.9241 C.3     1  UNL1        0.4186
     30 F          58.9833   94.1393    1.8554 F       1  UNL1       -0.1659
     31 F          58.8221   92.0299    2.0110 F       1  UNL1       -0.1659
     32 F          59.7348   94.2281    3.8372 F       1  UNL1       -0.1659
@<TRIPOS>BOND
     1    16    17    1
     2    17    18    1
     3    17    19    1
     4    17    10    1
     5    10    11   ar
     6    11    12   ar
     7    12    13   ar
     8    13    14   ar
     9    14    15   ar
    10    15     1    1
    11     1     2    2
    12     2     3    1
    13     3     4    2
    14     4     5    1
    15     5     6    2
    16     6    21    1
    17    21    22    2
    18    22    23    1
    19    23    24   ar
    20    24    25   ar
    21    25    26   ar
    22    26    29    1
    23    29    30    1
    24    29    31    1
    25    29    32    1
    26    26    27   ar
    27    27    28   ar
    28     6     7    1
    29     7     8    2
    30     8     9    1
    31    15    10   ar
    32     9     1    1
    33     8     4    1
    34    28    23   ar
    35    19    20    1
