@<TRIPOS>MOLECULE
*****
 32 36 0 0 0
SMALL
GASTEIGER

@<TRIPOS>ATOM
      1 N          64.3829   91.1533   14.4208 N.ar    1  UNL1       -0.2954
      2 C          64.2942   91.2809   12.9289 C.ar    1  UNL1        0.2014
      3 N          65.4595   92.1030   12.4639 N.ar    1  UNL1       -0.2136
      4 C          66.2684   92.4835   13.6684 C.ar    1  UNL1        0.0999
      5 C          67.5249   93.2886   13.8202 C.ar    1  UNL1        0.0207
      6 C          68.1159   93.5068   15.1814 C.ar    1  UNL1        0.0016
      7 C          67.4505   92.9198   16.3909 C.ar    1  UNL1        0.0016
      8 C          66.1941   92.1148   16.2391 C.ar    1  UNL1        0.0188
      9 C          65.6030   91.8966   14.8779 C.ar    1  UNL1        0.0801
     10 N          63.2275   90.6901   12.0553 N.pl3   1  UNL1       -0.2794
     11 C          61.9810   90.1265   12.6707 C.3     1  UNL1        0.0949
     12 C          60.9143   89.5357   11.7971 C.3     1  UNL1        0.0373
     13 C          61.0941   89.5085   10.3082 C.3     1  UNL1        0.0574
     14 C          62.3405   90.0721    9.6928 C.3     1  UNL1        0.0373
     15 C          63.4072   90.6629   10.5664 C.3     1  UNL1        0.0949
     16 N          60.0274   88.9177    9.4346 N.3     1  UNL1       -0.2984
     17 H          60.2425   89.1970    8.4775 H       1  UNL1        0.1232
     18 C          59.8113   87.4336    9.4145 C.3     1  UNL1        0.0686
     19 C          60.9796   86.5035    9.5559 C.3     1  UNL1        0.0207
     20 C          61.3584   85.9754   10.9079 C.3     1  UNL1        0.0335
     21 C          62.5268   85.0454   11.0494 C.3     1  UNL1        0.1422
     22 O          63.3163   84.6434    9.8389 O.3     1  UNL1       -0.3538
     23 C          62.9374   85.1715    8.4870 C.3     1  UNL1        0.1422
     24 C          61.7691   86.1015    8.3456 C.3     1  UNL1        0.0335
     25 C          63.4205   90.4126   15.3011 C.3     1  UNL1        0.1354
     26 F          64.0722   84.5102   16.1595 F       1  UNL1       -0.2042
     27 C          63.9093   85.9858   15.9449 C.ar    1  UNL1        0.1401
     28 C          63.1723   86.8138   16.9555 C.ar    1  UNL1        0.0294
     29 C          63.0093   88.2894   16.7409 C.ar    1  UNL1       -0.0001
     30 C          63.5834   88.9371   15.5157 C.ar    1  UNL1        0.0006
     31 C          64.3204   88.1090   14.5051 C.ar    1  UNL1       -0.0001
     32 C          64.4833   86.6334   14.7198 C.ar    1  UNL1        0.0294
@<TRIPOS>BOND
     1    26    27    1
     2    27    28   ar
     3    28    29   ar
     4    29    30   ar
     5    30    25    1
     6    25     1    1
     7     1     2   ar
     8     2    10    1
     9    10    11    1
    10    11    12    1
    11    12    13    1
    12    13    16    1
    13    16    18    1
    14    18    19    1
    15    19    20    1
    16    20    21    1
    17    21    22    1
    18    22    23    1
    19    23    24    1
    20    13    14    1
    21    14    15    1
    22     2     3   ar
    23     3     4   ar
    24     4     5   ar
    25     5     6   ar
    26     6     7   ar
    27     7     8   ar
    28     8     9   ar
    29    30    31   ar
    30    31    32   ar
    31    32    27   ar
    32     9     1   ar
    33    15    10    1
    34     9     4   ar
    35    24    19    1
    36    16    17    1
@<TRIPOS>MOLECULE
*****
 32 36 0 0 0
SMALL
GASTEIGER

@<TRIPOS>ATOM
      1 N          62.6053   85.3775   12.3778 N.ar    1  UNL1       -0.2954
      2 C          63.5715   86.1144   13.2573 C.ar    1  UNL1        0.2014
      3 N          64.3060   85.1038   14.0875 N.ar    1  UNL1       -0.2136
      4 C          63.7938   83.7424   13.7212 C.ar    1  UNL1        0.0999
      5 C          64.1486   82.3706   14.2133 C.ar    1  UNL1        0.0207
      6 C          63.4524   81.1680   13.6487 C.ar    1  UNL1        0.0016
      7 C          62.4013   81.3371   12.5920 C.ar    1  UNL1        0.0016
      8 C          62.0464   82.7089   12.0999 C.ar    1  UNL1        0.0188
      9 C          62.7427   83.9116   12.6645 C.ar    1  UNL1        0.0801
     10 N          63.7687   87.6008   13.2991 N.pl3   1  UNL1       -0.2794
     11 C          64.4827   88.2303   14.4583 C.3     1  UNL1        0.0949
     12 C          64.6798   89.7167   14.5002 C.3     1  UNL1        0.0373
     13 C          64.1629   90.5736   13.3829 C.3     1  UNL1        0.0574
     14 C          63.4488   89.9440   12.2237 C.3     1  UNL1        0.0373
     15 C          63.2517   88.4576   12.1818 C.3     1  UNL1        0.0949
     16 N          64.3600   92.0600   13.4247 N.3     1  UNL1       -0.2984
     17 H          63.9192   92.3914   14.2828 H       1  UNL1        0.1232
     18 C          65.7456   92.6338   13.4001 C.3     1  UNL1        0.0686
     19 C          66.2913   93.2223   12.1329 C.3     1  UNL1        0.0207
     20 C          66.9705   92.3400   11.1278 C.3     1  UNL1        0.0335
     21 C          67.5162   92.9286    9.8606 C.3     1  UNL1        0.1422
     22 O          67.3827   94.3995    9.5985 O.3     1  UNL1       -0.3538
     23 C          66.7035   95.2818   10.6036 C.3     1  UNL1        0.1422
     24 C          66.1578   94.6932   11.8708 C.3     1  UNL1        0.0335
     25 C          61.6666   85.9977   11.3858 C.3     1  UNL1        0.1354
     26 F          62.2040   84.7276    5.5465 F       1  UNL1       -0.2042
     27 C          62.0697   85.0451    7.0063 C.ar    1  UNL1        0.1401
     28 C          60.8333   85.7253    7.5152 C.ar    1  UNL1        0.0294
     29 C          60.6990   86.0428    8.9750 C.ar    1  UNL1       -0.0001
     30 C          61.8010   85.6801    9.9260 C.ar    1  UNL1        0.0006
     31 C          63.0372   85.0000    9.4171 C.ar    1  UNL1       -0.0001
     32 C          63.1715   84.6825    7.9572 C.ar    1  UNL1        0.0294
@<TRIPOS>BOND
     1    26    27    1
     2    27    28   ar
     3    28    29   ar
     4    29    30   ar
     5    30    25    1
     6    25     1    1
     7     1     2   ar
     8     2    10    1
     9    10    11    1
    10    11    12    1
    11    12    13    1
    12    13    16    1
    13    16    18    1
    14    18    19    1
    15    19    20    1
    16    20    21    1
    17    21    22    1
    18    22    23    1
    19    23    24    1
    20    13    14    1
    21    14    15    1
    22     2     3   ar
    23     3     4   ar
    24     4     5   ar
    25     5     6   ar
    26     6     7   ar
    27     7     8   ar
    28     8     9   ar
    29    30    31   ar
    30    31    32   ar
    31    32    27   ar
    32     9     1   ar
    33    15    10    1
    34     9     4   ar
    35    24    19    1
    36    16    17    1
@<TRIPOS>MOLECULE
*****
 32 36 0 0 0
SMALL
GASTEIGER

@<TRIPOS>ATOM
      1 N          62.6279   85.3520   12.3761 N.ar    1  UNL1       -0.2954
      2 C          63.5873   86.0822   13.2686 C.ar    1  UNL1        0.2014
      3 N          64.3210   85.0649   14.0912 N.ar    1  UNL1       -0.2136
      4 C          63.8151   83.7060   13.7072 C.ar    1  UNL1        0.0999
      5 C          64.1721   82.3300   14.1858 C.ar    1  UNL1        0.0207
      6 C          63.4827   81.1314   13.6044 C.ar    1  UNL1        0.0016
      7 C          62.4363   81.3088   12.5444 C.ar    1  UNL1        0.0016
      8 C          62.0793   82.6848   12.0658 C.ar    1  UNL1        0.0188
      9 C          62.7687   83.8834   12.6472 C.ar    1  UNL1        0.0801
     10 N          63.7792   87.5687   13.3279 N.pl3   1  UNL1       -0.2794
     11 C          63.2706   88.4356   12.2145 C.3     1  UNL1        0.0949
     12 C          63.4626   89.9221   12.2739 C.3     1  UNL1        0.0373
     13 C          64.1631   90.5417   13.4467 C.3     1  UNL1        0.0574
     14 C          64.6716   89.6747   14.5601 C.3     1  UNL1        0.0373
     15 C          64.4797   88.1882   14.5007 C.3     1  UNL1        0.0949
     16 N          64.3550   92.0282   13.5060 N.3     1  UNL1       -0.2984
     17 H          63.8934   92.3509   14.3564 H       1  UNL1        0.1232
     18 C          65.7392   92.6057   13.5188 C.3     1  UNL1        0.0686
     19 C          66.3412   93.1388   12.2525 C.3     1  UNL1        0.0207
     20 C          66.1883   94.5893   11.9020 C.3     1  UNL1        0.0335
     21 C          66.7902   95.1223   10.6357 C.3     1  UNL1        0.1422
     22 O          67.5451   94.2049    9.7199 O.3     1  UNL1       -0.3538
     23 C          67.6979   92.7545   10.0704 C.3     1  UNL1        0.1422
     24 C          67.0960   92.2214   11.3367 C.3     1  UNL1        0.0335
     25 C          61.6921   85.9801   11.3863 C.3     1  UNL1        0.1354
     26 F          62.2198   84.7237    5.5431 F       1  UNL1       -0.2042
     27 C          62.0879   85.0377    7.0039 C.ar    1  UNL1        0.1401
     28 C          60.8448   85.7004    7.5193 C.ar    1  UNL1        0.0294
     29 C          60.7129   86.0145    8.9801 C.ar    1  UNL1       -0.0001
     30 C          61.8240   85.6660    9.9256 C.ar    1  UNL1        0.0006
     31 C          63.0671   85.0033    9.4102 C.ar    1  UNL1       -0.0001
     32 C          63.1990   84.6892    7.9494 C.ar    1  UNL1        0.0294
@<TRIPOS>BOND
     1    26    27    1
     2    27    28   ar
     3    28    29   ar
     4    29    30   ar
     5    30    25    1
     6    25     1    1
     7     1     2   ar
     8     2    10    1
     9    10    11    1
    10    11    12    1
    11    12    13    1
    12    13    16    1
    13    16    18    1
    14    18    19    1
    15    19    20    1
    16    20    21    1
    17    21    22    1
    18    22    23    1
    19    23    24    1
    20    13    14    1
    21    14    15    1
    22     2     3   ar
    23     3     4   ar
    24     4     5   ar
    25     5     6   ar
    26     6     7   ar
    27     7     8   ar
    28     8     9   ar
    29    30    31   ar
    30    31    32   ar
    31    32    27   ar
    32     9     1   ar
    33    15    10    1
    34     9     4   ar
    35    24    19    1
    36    16    17    1
@<TRIPOS>MOLECULE
*****
 32 36 0 0 0
SMALL
GASTEIGER

@<TRIPOS>ATOM
      1 N          63.3235   84.4343   11.9211 N.ar    1  UNL1       -0.2954
      2 C          63.2700   85.2000   13.2099 C.ar    1  UNL1        0.2014
      3 N          62.9453   84.2336   14.3101 N.ar    1  UNL1       -0.2136
      4 C          62.7982   82.8705   13.7013 C.ar    1  UNL1        0.0999
      5 C          62.4815   81.5325   14.3007 C.ar    1  UNL1        0.0207
      6 C          62.3986   80.3185   13.4236 C.ar    1  UNL1        0.0016
      7 C          62.6324   80.4426   11.9472 C.ar    1  UNL1        0.0016
      8 C          62.9490   81.7807   11.3478 C.ar    1  UNL1        0.0188
      9 C          63.0319   82.9946   12.2249 C.ar    1  UNL1        0.0801
     10 N          63.5007   86.6735   13.3702 N.pl3   1  UNL1       -0.2794
     11 C          63.0301   87.6259   12.3113 C.3     1  UNL1        0.0949
     12 C          63.2607   89.0994   12.4716 C.3     1  UNL1        0.0373
     13 C          63.9620   89.6204   13.6909 C.3     1  UNL1        0.0574
     14 C          64.4326   88.6680   14.7498 C.3     1  UNL1        0.0373
     15 C          64.2019   87.1945   14.5895 C.3     1  UNL1        0.0949
     16 N          64.1927   91.0939   13.8512 N.3     1  UNL1       -0.2984
     17 H          63.2737   91.5364   13.8613 H       1  UNL1        0.1232
     18 C          64.9354   91.6109   15.0474 C.3     1  UNL1        0.0686
     19 C          66.3697   92.0299   14.9163 C.3     1  UNL1        0.0207
     20 C          67.1420   91.6834   13.6779 C.3     1  UNL1        0.0335
     21 C          68.5763   92.1024   13.5467 C.3     1  UNL1        0.1422
     22 O          69.2383   92.8679   14.6539 O.3     1  UNL1       -0.3538
     23 C          68.4660   93.2144   15.8922 C.3     1  UNL1        0.1422
     24 C          67.0317   92.7954   16.0234 C.3     1  UNL1        0.0335
     25 C          63.6171   85.0076   10.5665 C.3     1  UNL1        0.1354
     26 F          59.1094   86.6194    6.9495 F       1  UNL1       -0.2042
     27 C          60.2363   86.2165    7.8537 C.ar    1  UNL1        0.1401
     28 C          61.4153   85.4742    7.2978 C.ar    1  UNL1        0.0294
     29 C          62.5422   85.0713    8.2020 C.ar    1  UNL1       -0.0001
     30 C          62.4902   85.4106    9.6623 C.ar    1  UNL1        0.0006
     31 C          61.3112   86.1529   10.2182 C.ar    1  UNL1       -0.0001
     32 C          60.1843   86.5558    9.3139 C.ar    1  UNL1        0.0294
@<TRIPOS>BOND
     1    26    27    1
     2    27    28   ar
     3    28    29   ar
     4    29    30   ar
     5    30    25    1
     6    25     1    1
     7     1     2   ar
     8     2    10    1
     9    10    11    1
    10    11    12    1
    11    12    13    1
    12    13    16    1
    13    16    18    1
    14    18    19    1
    15    19    20    1
    16    20    21    1
    17    21    22    1
    18    22    23    1
    19    23    24    1
    20    13    14    1
    21    14    15    1
    22     2     3   ar
    23     3     4   ar
    24     4     5   ar
    25     5     6   ar
    26     6     7   ar
    27     7     8   ar
    28     8     9   ar
    29    30    31   ar
    30    31    32   ar
    31    32    27   ar
    32     9     1   ar
    33    15    10    1
    34     9     4   ar
    35    24    19    1
    36    16    17    1
@<TRIPOS>MOLECULE
*****
 32 36 0 0 0
SMALL
GASTEIGER

@<TRIPOS>ATOM
      1 N          62.6086   85.2693   12.3313 N.ar    1  UNL1       -0.2954
      2 C          63.5500   86.0235   13.2228 C.ar    1  UNL1        0.2014
      3 N          64.3007   85.0256   14.0540 N.ar    1  UNL1       -0.2136
      4 C          63.8231   83.6548   13.6762 C.ar    1  UNL1        0.0999
      5 C          64.2055   82.2889   14.1641 C.ar    1  UNL1        0.0207
      6 C          63.5420   81.0736   13.5873 C.ar    1  UNL1        0.0016
      7 C          62.4962   81.2242   12.5225 C.ar    1  UNL1        0.0016
      8 C          62.1139   82.5901   12.0346 C.ar    1  UNL1        0.0188
      9 C          62.7774   83.8054   12.6114 C.ar    1  UNL1        0.0801
     10 N          63.7124   87.5138   13.2742 N.pl3   1  UNL1       -0.2794
     11 C          64.4080   88.1527   14.4394 C.3     1  UNL1        0.0949
     12 C          64.5703   89.6430   14.4907 C.3     1  UNL1        0.0373
     13 C          64.0370   90.4944   13.3769 C.3     1  UNL1        0.0574
     14 C          63.3413   89.8554   12.2117 C.3     1  UNL1        0.0373
     15 C          63.1790   88.3651   12.1603 C.3     1  UNL1        0.0949
     16 N          64.1993   91.9847   13.4282 N.3     1  UNL1       -0.2984
     17 H          64.2169   92.2452   14.4143 H       1  UNL1        0.1232
     18 C          65.3915   92.6318   12.7881 C.3     1  UNL1        0.0686
     19 C          66.6974   92.6920   13.5238 C.3     1  UNL1        0.0207
     20 C          66.8139   93.5039   14.7797 C.3     1  UNL1        0.0335
     21 C          68.1198   93.5641   15.5154 C.3     1  UNL1        0.1422
     22 O          69.3091   92.8125   14.9950 O.3     1  UNL1       -0.3538
     23 C          69.1925   92.0007   13.7391 C.3     1  UNL1        0.1422
     24 C          67.8867   91.9404   13.0035 C.3     1  UNL1        0.0335
     25 C          61.6641   85.8730   11.3345 C.3     1  UNL1        0.1354
     26 F          62.3246   84.7051    5.4865 F       1  UNL1       -0.2042
     27 C          62.1595   84.9971    6.9485 C.ar    1  UNL1        0.1401
     28 C          63.2537   84.6443    7.9120 C.ar    1  UNL1        0.0294
     29 C          63.0885   84.9363    9.3740 C.ar    1  UNL1       -0.0001
     30 C          61.8292   85.5811    9.8726 C.ar    1  UNL1        0.0006
     31 C          60.7351   85.9338    8.9090 C.ar    1  UNL1       -0.0001
     32 C          60.9002   85.6418    7.4470 C.ar    1  UNL1        0.0294
@<TRIPOS>BOND
     1    26    27    1
     2    27    28   ar
     3    28    29   ar
     4    29    30   ar
     5    30    25    1
     6    25     1    1
     7     1     2   ar
     8     2    10    1
     9    10    11    1
    10    11    12    1
    11    12    13    1
    12    13    16    1
    13    16    18    1
    14    18    19    1
    15    19    20    1
    16    20    21    1
    17    21    22    1
    18    22    23    1
    19    23    24    1
    20    13    14    1
    21    14    15    1
    22     2     3   ar
    23     3     4   ar
    24     4     5   ar
    25     5     6   ar
    26     6     7   ar
    27     7     8   ar
    28     8     9   ar
    29    30    31   ar
    30    31    32   ar
    31    32    27   ar
    32     9     1   ar
    33    15    10    1
    34     9     4   ar
    35    24    19    1
    36    16    17    1
@<TRIPOS>MOLECULE
*****
 32 36 0 0 0
SMALL
GASTEIGER

@<TRIPOS>ATOM
      1 N          66.4176   91.8624   12.6560 N.ar    1  UNL1       -0.2954
      2 C          65.0237   91.4991   13.0741 C.ar    1  UNL1        0.2014
      3 N          64.9177   91.6986   14.5569 N.ar    1  UNL1       -0.2136
      4 C          66.2462   92.1852   15.0553 C.ar    1  UNL1        0.0999
      5 C          66.7315   92.5492   16.4272 C.ar    1  UNL1        0.0207
      6 C          68.1438   93.0145   16.6241 C.ar    1  UNL1        0.0016
      7 C          69.0708   93.1157   15.4492 C.ar    1  UNL1        0.0016
      8 C          68.5855   92.7517   14.0774 C.ar    1  UNL1        0.0188
      9 C          67.1732   92.2865   13.8804 C.ar    1  UNL1        0.0801
     10 N          63.9281   91.0203   12.1683 N.pl3   1  UNL1       -0.2794
     11 C          63.7895   91.5953   10.7899 C.3     1  UNL1        0.0949
     12 C          62.6938   91.1165    9.8842 C.3     1  UNL1        0.0373
     13 C          61.7368   90.0627   10.3568 C.3     1  UNL1        0.0574
     14 C          61.8754   89.4876   11.7352 C.3     1  UNL1        0.0373
     15 C          62.9710   89.9664   12.6410 C.3     1  UNL1        0.0949
     16 N          60.6412   89.5839    9.4511 N.3     1  UNL1       -0.2984
     17 H          60.9736   89.7095    8.4950 H       1  UNL1        0.1232
     18 C          60.1452   88.1721    9.5552 C.3     1  UNL1        0.0686
     19 C          60.8734   87.0674    8.8487 C.3     1  UNL1        0.0207
     20 C          62.2591   86.6871    9.2792 C.3     1  UNL1        0.0335
     21 C          62.9873   85.5823    8.5726 C.3     1  UNL1        0.1422
     22 O          62.3298   84.8578    7.4356 O.3     1  UNL1       -0.3538
     23 C          60.9441   85.2381    7.0051 C.3     1  UNL1        0.1422
     24 C          60.2160   86.3429    7.7117 C.3     1  UNL1        0.0335
     25 C          66.9608   91.8108   11.2587 C.3     1  UNL1        0.1354
     26 F          67.4626   96.8534    8.0464 F       1  UNL1       -0.2042
     27 C          67.3371   95.5928    8.8495 C.ar    1  UNL1        0.1401
     28 C          68.1230   94.3753    8.4619 C.ar    1  UNL1        0.0294
     29 C          67.9975   93.1147    9.2650 C.ar    1  UNL1       -0.0001
     30 C          67.0862   93.0714   10.4557 C.ar    1  UNL1        0.0006
     31 C          66.3004   94.2889   10.8432 C.ar    1  UNL1       -0.0001
     32 C          66.4259   95.5495   10.0401 C.ar    1  UNL1        0.0294
@<TRIPOS>BOND
     1    26    27    1
     2    27    28   ar
     3    28    29   ar
     4    29    30   ar
     5    30    25    1
     6    25     1    1
     7     1     2   ar
     8     2    10    1
     9    10    11    1
    10    11    12    1
    11    12    13    1
    12    13    16    1
    13    16    18    1
    14    18    19    1
    15    19    20    1
    16    20    21    1
    17    21    22    1
    18    22    23    1
    19    23    24    1
    20    13    14    1
    21    14    15    1
    22     2     3   ar
    23     3     4   ar
    24     4     5   ar
    25     5     6   ar
    26     6     7   ar
    27     7     8   ar
    28     8     9   ar
    29    30    31   ar
    30    31    32   ar
    31    32    27   ar
    32     9     1   ar
    33    15    10    1
    34     9     4   ar
    35    24    19    1
    36    16    17    1
@<TRIPOS>MOLECULE
*****
 32 36 0 0 0
SMALL
GASTEIGER

@<TRIPOS>ATOM
      1 N          62.7159   85.1395   12.5987 N.ar    1  UNL1       -0.2954
      2 C          63.5627   85.7328   13.6854 C.ar    1  UNL1        0.2014
      3 N          64.2807   84.6123   14.3774 N.ar    1  UNL1       -0.2136
      4 C          63.8777   83.3265   13.7184 C.ar    1  UNL1        0.0999
      5 C          64.2664   81.9011   13.9773 C.ar    1  UNL1        0.0207
      6 C          63.6880   80.8015   13.1369 C.ar    1  UNL1        0.0016
      7 C          62.7208   81.1273   12.0376 C.ar    1  UNL1        0.0016
      8 C          62.3321   82.5527   11.7787 C.ar    1  UNL1        0.0188
      9 C          62.9105   83.6523   12.6191 C.ar    1  UNL1        0.0801
     10 N          63.6722   87.1906   14.0211 N.pl3   1  UNL1       -0.2794
     11 C          63.7581   87.6259   15.4539 C.3     1  UNL1        0.0949
     12 C          63.8677   89.0837   15.7896 C.3     1  UNL1        0.0373
     13 C          63.8913   90.1063   14.6925 C.3     1  UNL1        0.0574
     14 C          63.8053   89.6710   13.2597 C.3     1  UNL1        0.0373
     15 C          63.6958   88.2132   12.9240 C.3     1  UNL1        0.0949
     16 N          64.0008   91.5641   15.0282 N.3     1  UNL1       -0.2984
     17 H          63.5584   91.6907   15.9385 H       1  UNL1        0.1232
     18 C          65.3493   92.2162   15.1077 C.3     1  UNL1        0.0686
     19 C          66.2404   92.2457   13.9015 C.3     1  UNL1        0.0207
     20 C          65.7025   92.7170   12.5829 C.3     1  UNL1        0.0335
     21 C          66.5936   92.7465   11.3767 C.3     1  UNL1        0.1422
     22 O          68.0227   92.3046   11.4891 O.3     1  UNL1       -0.3538
     23 C          68.5606   91.8334   12.8076 C.3     1  UNL1        0.1422
     24 C          67.6694   91.8039   14.0138 C.3     1  UNL1        0.0335
     25 C          61.8299   85.8998   11.6569 C.3     1  UNL1        0.1354
     26 F          62.1694   84.8990    5.7507 F       1  UNL1       -0.2042
     27 C          62.0845   85.1492    7.2273 C.ar    1  UNL1        0.1401
     28 C          60.8980   85.8668    7.7994 C.ar    1  UNL1        0.0294
     29 C          60.8132   86.1170    9.2759 C.ar    1  UNL1       -0.0001
     30 C          61.9148   85.6496   10.1804 C.ar    1  UNL1        0.0006
     31 C          63.1012   84.9320    9.6083 C.ar    1  UNL1       -0.0001
     32 C          63.1861   84.6818    8.1317 C.ar    1  UNL1        0.0294
@<TRIPOS>BOND
     1    26    27    1
     2    27    28   ar
     3    28    29   ar
     4    29    30   ar
     5    30    25    1
     6    25     1    1
     7     1     2   ar
     8     2    10    1
     9    10    11    1
    10    11    12    1
    11    12    13    1
    12    13    16    1
    13    16    18    1
    14    18    19    1
    15    19    20    1
    16    20    21    1
    17    21    22    1
    18    22    23    1
    19    23    24    1
    20    13    14    1
    21    14    15    1
    22     2     3   ar
    23     3     4   ar
    24     4     5   ar
    25     5     6   ar
    26     6     7   ar
    27     7     8   ar
    28     8     9   ar
    29    30    31   ar
    30    31    32   ar
    31    32    27   ar
    32     9     1   ar
    33    15    10    1
    34     9     4   ar
    35    24    19    1
    36    16    17    1
@<TRIPOS>MOLECULE
*****
 32 36 0 0 0
SMALL
GASTEIGER

@<TRIPOS>ATOM
      1 N          61.3532   87.7638   10.7402 N.ar    1  UNL1       -0.2954
      2 C          61.9344   89.1438   10.8286 C.ar    1  UNL1        0.2014
      3 N          61.4166   89.9400    9.6676 N.ar    1  UNL1       -0.2136
      4 C          60.5154   89.0522    8.8617 C.ar    1  UNL1        0.0999
      5 C          59.7254   89.2946    7.6098 C.ar    1  UNL1        0.0207
      6 C          58.8963   88.1921    7.0209 C.ar    1  UNL1        0.0016
      7 C          58.8572   86.8471    7.6838 C.ar    1  UNL1        0.0016
      8 C          59.6471   86.6046    8.9356 C.ar    1  UNL1        0.0188
      9 C          60.4763   87.7071    9.5245 C.ar    1  UNL1        0.0801
     10 N          62.8692   89.6404   11.8914 N.pl3   1  UNL1       -0.2794
     11 C          63.2377   91.0933   11.9469 C.3     1  UNL1        0.0949
     12 C          64.1725   91.5899   13.0097 C.3     1  UNL1        0.0373
     13 C          64.7389   90.6336   14.0170 C.3     1  UNL1        0.0574
     14 C          64.3704   89.1806   13.9614 C.3     1  UNL1        0.0373
     15 C          63.4356   88.6840   12.8986 C.3     1  UNL1        0.0949
     16 N          65.6737   91.1301   15.0798 N.3     1  UNL1       -0.2984
     17 H          66.0026   90.3100   15.5892 H       1  UNL1        0.1232
     18 C          66.8906   91.9200   14.6988 C.3     1  UNL1        0.0686
     19 C          66.9978   92.5176   13.3272 C.3     1  UNL1        0.0207
     20 C          67.7325   91.7836   12.2447 C.3     1  UNL1        0.0335
     21 C          67.8397   92.3811   10.8730 C.3     1  UNL1        0.1422
     22 O          67.2124   93.7126   10.5839 O.3     1  UNL1       -0.3538
     23 C          66.4778   94.4466   11.6663 C.3     1  UNL1        0.1422
     24 C          66.3706   93.8490   13.0380 C.3     1  UNL1        0.0335
     25 C          61.6049   86.6381   11.6990 C.3     1  UNL1        0.1354
     26 F          64.6580   81.7946    9.9050 F       1  UNL1       -0.2042
     27 C          63.8947   83.0055   10.3535 C.ar    1  UNL1        0.1401
     28 C          63.5028   83.1540   11.7938 C.ar    1  UNL1        0.0294
     29 C          62.7395   84.3649   12.2422 C.ar    1  UNL1       -0.0001
     30 C          62.3681   85.4273   11.2505 C.ar    1  UNL1        0.0006
     31 C          62.7600   85.2786    9.8102 C.ar    1  UNL1       -0.0001
     32 C          63.5233   84.0678    9.3618 C.ar    1  UNL1        0.0294
@<TRIPOS>BOND
     1    26    27    1
     2    27    28   ar
     3    28    29   ar
     4    29    30   ar
     5    30    25    1
     6    25     1    1
     7     1     2   ar
     8     2    10    1
     9    10    11    1
    10    11    12    1
    11    12    13    1
    12    13    16    1
    13    16    18    1
    14    18    19    1
    15    19    20    1
    16    20    21    1
    17    21    22    1
    18    22    23    1
    19    23    24    1
    20    13    14    1
    21    14    15    1
    22     2     3   ar
    23     3     4   ar
    24     4     5   ar
    25     5     6   ar
    26     6     7   ar
    27     7     8   ar
    28     8     9   ar
    29    30    31   ar
    30    31    32   ar
    31    32    27   ar
    32     9     1   ar
    33    15    10    1
    34     9     4   ar
    35    24    19    1
    36    16    17    1
@<TRIPOS>MOLECULE
*****
 32 36 0 0 0
SMALL
GASTEIGER

@<TRIPOS>ATOM
      1 N          62.4565   88.1232   11.9891 N.ar    1  UNL1       -0.2954
      2 C          61.9491   87.2916   10.8485 C.ar    1  UNL1        0.2014
      3 N          62.4017   85.8785   11.0680 N.ar    1  UNL1       -0.2136
      4 C          63.1889   85.8367   12.3442 C.ar    1  UNL1        0.0999
      5 C          63.8792   84.7147   13.0615 C.ar    1  UNL1        0.0207
      6 C          64.6033   84.9800   14.3480 C.ar    1  UNL1        0.0016
      7 C          64.6371   86.3674   14.9173 C.ar    1  UNL1        0.0016
      8 C          63.9469   87.4894   14.2000 C.ar    1  UNL1        0.0188
      9 C          63.2227   87.2241   12.9135 C.ar    1  UNL1        0.0801
     10 N          61.1325   87.7862    9.6916 N.pl3   1  UNL1       -0.2794
     11 C          60.4648   86.8073    8.7719 C.3     1  UNL1        0.0949
     12 C          59.6482   87.3019    7.6150 C.3     1  UNL1        0.0373
     13 C          59.4992   88.7755    7.3778 C.3     1  UNL1        0.0574
     14 C          60.1669   89.7544    8.2975 C.3     1  UNL1        0.0373
     15 C          60.9835   89.2598    9.4544 C.3     1  UNL1        0.0949
     16 N          58.6826   89.2701    6.2209 N.3     1  UNL1       -0.2984
     17 H          57.7237   88.9633    6.3848 H       1  UNL1        0.1232
     18 C          58.6218   90.7381    5.9190 C.3     1  UNL1        0.0686
     19 C          59.5457   91.3327    4.8978 C.3     1  UNL1        0.0207
     20 C          60.9805   90.8988    4.8416 C.3     1  UNL1        0.0335
     21 C          61.9044   91.4934    3.8204 C.3     1  UNL1        0.1422
     22 O          61.3935   92.5219    2.8554 O.3     1  UNL1       -0.3538
     23 C          59.9587   92.9558    2.9116 C.3     1  UNL1        0.1422
     24 C          59.0348   92.3612    3.9328 C.3     1  UNL1        0.0335
     25 C          62.2364   89.5955   12.1730 C.3     1  UNL1        0.1354
     26 F          66.8864   93.3789   11.9222 F       1  UNL1       -0.2042
     27 C          65.7239   92.4330   11.9850 C.ar    1  UNL1        0.1401
     28 C          64.8927   92.1842   10.7614 C.ar    1  UNL1        0.0294
     29 C          63.7302   91.2384   10.8241 C.ar    1  UNL1       -0.0001
     30 C          63.3988   90.5413   12.1104 C.ar    1  UNL1        0.0006
     31 C          64.2301   90.7902   13.3339 C.ar    1  UNL1       -0.0001
     32 C          65.3927   91.7360   13.2712 C.ar    1  UNL1        0.0294
@<TRIPOS>BOND
     1    26    27    1
     2    27    28   ar
     3    28    29   ar
     4    29    30   ar
     5    30    25    1
     6    25     1    1
     7     1     2   ar
     8     2    10    1
     9    10    11    1
    10    11    12    1
    11    12    13    1
    12    13    16    1
    13    16    18    1
    14    18    19    1
    15    19    20    1
    16    20    21    1
    17    21    22    1
    18    22    23    1
    19    23    24    1
    20    13    14    1
    21    14    15    1
    22     2     3   ar
    23     3     4   ar
    24     4     5   ar
    25     5     6   ar
    26     6     7   ar
    27     7     8   ar
    28     8     9   ar
    29    30    31   ar
    30    31    32   ar
    31    32    27   ar
    32     9     1   ar
    33    15    10    1
    34     9     4   ar
    35    24    19    1
    36    16    17    1
