@<TRIPOS>MOLECULE
*****
 38 42 0 0 0
SMALL
GASTEIGER

@<TRIPOS>ATOM
      1 N          65.1930   92.3416   12.0533 N.3     1  UNL1       -0.2679
      2 C          66.2679   92.7102   11.0741 C.3     1  UNL1        0.0978
      3 C          67.3037   91.6988   10.6815 C.3     1  UNL1        0.0224
      4 C          68.3786   92.0674    9.7023 C.3     1  UNL1        0.0065
      5 C          68.4177   93.4474    9.1159 C.3     1  UNL1        0.0277
      6 C          67.3820   94.4588    9.5085 C.ar    1  UNL1       -0.0073
      7 C          67.4211   95.8389    8.9220 C.ar    1  UNL1       -0.0015
      8 C          66.3853   96.8503    9.3147 C.ar    1  UNL1        0.0203
      9 C          65.3104   96.4817   10.2938 C.ar    1  UNL1        0.0985
     10 N          65.2713   95.1017   10.8803 N.ar    1  UNL1       -0.2471
     11 C          66.3071   94.0902   10.4877 C.ar    1  UNL1        0.0695
     12 C          63.8215   91.9842   11.5621 C.3     1  UNL1        0.0725
     13 C          63.6612   91.1570   10.3211 C.3     1  UNL1        0.0188
     14 C          62.6647   90.0363   10.2903 C.3     1  UNL1        0.0185
     15 C          62.6602   89.0065   11.3809 C.3     1  UNL1        0.0686
     16 N          61.4225   88.2023   11.6481 N.3     1  UNL1       -0.2975
     17 H          61.4653   87.9117   12.6249 H       1  UNL1        0.1232
     18 C          61.1406   86.9693   10.8416 C.3     1  UNL1        0.0686
     19 O          64.7373   82.5557   10.1891 O.2     1  UNL1       -0.1730
     20 S          63.9188   83.4377   11.0848 S.O2    1  UNL1       -0.0100
     21 O          64.5190   82.5160   12.1046 O.2     1  UNL1       -0.1730
     22 C          63.3087   83.9995   12.3346 C.3     1  UNL1        0.1509
     23 C          62.3827   85.1767   12.2536 C.3     1  UNL1        0.0267
     24 C          62.0667   85.7921   10.9227 C.3     1  UNL1        0.0192
     25 C          62.6768   85.2303    9.6728 C.3     1  UNL1        0.0267
     26 C          63.6028   84.0531    9.7538 C.3     1  UNL1        0.1509
     27 C          65.4896   92.3303   13.5236 C.3     1  UNL1        0.0886
     28 C          64.8518   91.3014   14.4095 C.3     1  UNL1        0.0748
     29 C          64.9958   89.8431   14.0894 C.3     1  UNL1        0.0432
     30 C          64.3580   88.8142   14.9753 C.ar    1  UNL1       -0.0234
     31 C          64.5020   87.3559   14.6553 C.ar    1  UNL1       -0.0045
     32 C          63.8642   86.3271   15.5412 C.ar    1  UNL1       -0.0003
     33 C          63.0824   86.7567   16.7471 C.ar    1  UNL1       -0.0003
     34 C          62.9384   88.2150   17.0672 C.ar    1  UNL1       -0.0032
     35 C          63.5762   89.2438   16.1813 C.ar    1  UNL1       -0.0103
     36 C          63.4322   90.7022   16.5013 C.3     1  UNL1        0.0953
     37 N          64.0700   91.7310   15.6154 N.3     1  UNL1       -0.2934
     38 H          64.7064   92.2708   16.2019 H       1  UNL1        0.1236
@<TRIPOS>BOND
     1    19    20    2
     2    20    21    2
     3    20    22    1
     4    22    23    1
     5    23    24    1
     6    24    18    1
     7    18    16    1
     8    16    15    1
     9    15    14    1
    10    14    13    1
    11    13    12    1
    12    12     1    1
    13     1    27    1
    14    28    27    1
    15    28    29    1
    16    29    30    1
    17    30    31   ar
    18    31    32   ar
    19    32    33   ar
    20    33    34   ar
    21    34    35   ar
    22    35    36    1
    23    36    37    1
    24     2     1    1
    25     2     3    1
    26     3     4    1
    27     4     5    1
    28     5     6    1
    29     6     7   ar
    30     7     8   ar
    31     8     9   ar
    32     9    10   ar
    33    10    11   ar
    34    24    25    1
    35    25    26    1
    36    26    20    1
    37    37    28    1
    38    11     2    1
    39    35    30   ar
    40    11     6   ar
    41    16    17    1
    42    37    38    1
@<TRIPOS>MOLECULE
*****
 38 42 0 0 0
SMALL
GASTEIGER

@<TRIPOS>ATOM
      1 N          63.1468   89.9457   13.1715 N.3     1  UNL1       -0.2679
      2 C          63.9965   90.9976   12.5222 C.3     1  UNL1        0.0978
      3 C          63.8977   91.2347   11.0444 C.3     1  UNL1        0.0224
      4 C          64.7474   92.2866   10.3950 C.3     1  UNL1        0.0065
      5 C          65.6959   93.1014   11.2236 C.3     1  UNL1        0.0277
      6 C          65.7947   92.8643   12.7014 C.ar    1  UNL1       -0.0073
      7 C          66.7432   93.6791   13.5300 C.ar    1  UNL1       -0.0015
      8 C          66.8420   93.4420   15.0078 C.ar    1  UNL1        0.0203
      9 C          65.9923   92.3901   15.6571 C.ar    1  UNL1        0.0985
     10 N          65.0438   91.5753   14.8286 N.ar    1  UNL1       -0.2471
     11 C          64.9450   91.8124   13.3507 C.ar    1  UNL1        0.0695
     12 C          63.7295   89.0610   14.2333 C.3     1  UNL1        0.0725
     13 C          64.0081   87.6172   13.9369 C.3     1  UNL1        0.0188
     14 C          64.6449   86.7468   14.9795 C.3     1  UNL1        0.0185
     15 C          63.7881   86.0005   15.9587 C.3     1  UNL1        0.0686
     16 N          62.5769   85.2558   15.4804 N.3     1  UNL1       -0.2975
     17 H          61.8415   85.4169   16.1685 H       1  UNL1        0.1232
     18 C          62.6464   83.7738   15.2597 C.3     1  UNL1        0.0686
     19 O          63.2826   81.0068   10.2816 O.2     1  UNL1       -0.1730
     20 S          63.6433   82.1504   11.1828 S.O2    1  UNL1       -0.0100
     21 O          64.5132   82.4649   10.0020 O.2     1  UNL1       -0.1730
     22 C          64.3061   83.4032   11.6739 C.3     1  UNL1        0.1509
     23 C          63.9739   83.9443   13.0328 C.3     1  UNL1        0.0267
     24 C          62.9787   83.2327   13.9007 C.3     1  UNL1        0.0192
     25 C          62.3159   81.9799   13.4096 C.3     1  UNL1        0.0267
     26 C          62.6482   81.4387   12.0507 C.3     1  UNL1        0.1509
     27 C          61.7144   89.7786   12.7589 C.3     1  UNL1        0.0886
     28 C          61.3752   88.9886   11.5297 C.3     1  UNL1        0.0748
     29 C          62.2781   87.8790   11.0785 C.3     1  UNL1        0.0432
     30 C          61.9389   87.0890    9.8493 C.ar    1  UNL1       -0.0234
     31 C          62.8417   85.9794    9.3980 C.ar    1  UNL1       -0.0045
     32 C          62.5025   85.1894    8.1689 C.ar    1  UNL1       -0.0003
     33 C          61.2604   85.5090    7.3911 C.ar    1  UNL1       -0.0003
     34 C          60.3575   86.6185    7.8423 C.ar    1  UNL1       -0.0032
     35 C          60.6967   87.4085    9.0715 C.ar    1  UNL1       -0.0103
     36 C          59.7938   88.5181    9.5228 C.3     1  UNL1        0.0953
     37 N          60.1331   89.3081   10.7519 N.3     1  UNL1       -0.2934
     38 H          59.3481   89.2039   11.3948 H       1  UNL1        0.1236
@<TRIPOS>BOND
     1    19    20    2
     2    20    21    2
     3    20    22    1
     4    22    23    1
     5    23    24    1
     6    24    18    1
     7    18    16    1
     8    16    15    1
     9    15    14    1
    10    14    13    1
    11    13    12    1
    12    12     1    1
    13     1    27    1
    14    28    27    1
    15    28    29    1
    16    29    30    1
    17    30    31   ar
    18    31    32   ar
    19    32    33   ar
    20    33    34   ar
    21    34    35   ar
    22    35    36    1
    23    36    37    1
    24     2     1    1
    25     2     3    1
    26     3     4    1
    27     4     5    1
    28     5     6    1
    29     6     7   ar
    30     7     8   ar
    31     8     9   ar
    32     9    10   ar
    33    10    11   ar
    34    24    25    1
    35    25    26    1
    36    26    20    1
    37    37    28    1
    38    11     2    1
    39    35    30   ar
    40    11     6   ar
    41    16    17    1
    42    37    38    1
@<TRIPOS>MOLECULE
*****
 38 42 0 0 0
SMALL
GASTEIGER

@<TRIPOS>ATOM
      1 N          63.3106   88.8832   13.5007 N.3     1  UNL1       -0.2679
      2 C          62.8585   89.2080   12.1078 C.3     1  UNL1        0.0978
      3 C          62.9884   90.6077   11.5844 C.3     1  UNL1        0.0224
      4 C          62.5363   90.9325   10.1915 C.3     1  UNL1        0.0065
      5 C          61.9545   89.8576    9.3220 C.3     1  UNL1        0.0277
      6 C          61.8247   88.4579    9.8454 C.ar    1  UNL1       -0.0073
      7 C          61.2428   87.3829    8.9759 C.ar    1  UNL1       -0.0015
      8 C          61.1130   85.9833    9.4994 C.ar    1  UNL1        0.0203
      9 C          61.5650   85.6585   10.8923 C.ar    1  UNL1        0.0985
     10 N          62.1468   86.7334   11.7617 N.ar    1  UNL1       -0.2471
     11 C          62.2767   88.1331   11.2383 C.ar    1  UNL1        0.0695
     12 C          63.9592   87.5620   13.7898 C.3     1  UNL1        0.0725
     13 C          64.5925   87.3140   15.1268 C.3     1  UNL1        0.0188
     14 C          64.3248   86.0315   15.8572 C.3     1  UNL1        0.0185
     15 C          62.9488   85.7376   16.3770 C.3     1  UNL1        0.0686
     16 N          62.0610   84.7740   15.6466 N.3     1  UNL1       -0.2975
     17 H          61.2021   84.6944   16.1909 H       1  UNL1        0.1232
     18 C          62.5334   83.3762   15.3763 C.3     1  UNL1        0.0686
     19 O          64.6525   82.5653   10.1138 O.2     1  UNL1       -0.1730
     20 S          63.7030   82.1640   11.2034 S.O2    1  UNL1       -0.0100
     21 O          63.3506   81.1436   10.1620 O.2     1  UNL1       -0.1730
     22 C          62.6310   81.4083   11.9313 C.3     1  UNL1        0.1509
     23 C          62.2412   81.8123   13.3223 C.3     1  UNL1        0.0267
     24 C          62.9233   82.9721   13.9853 C.3     1  UNL1        0.0192
     25 C          63.9952   83.7278   13.2573 C.3     1  UNL1        0.0267
     26 C          64.3850   83.3238   11.8664 C.3     1  UNL1        0.1509
     27 C          63.1139   89.8797   14.6045 C.3     1  UNL1        0.0886
     28 C          64.2507   90.7605   15.0310 C.3     1  UNL1        0.0748
     29 C          65.5336   90.7585   14.2538 C.3     1  UNL1        0.0432
     30 C          66.6704   91.6394   14.6803 C.ar    1  UNL1       -0.0234
     31 C          67.9533   91.6373   13.9030 C.ar    1  UNL1       -0.0045
     32 C          69.0900   92.5182   14.3296 C.ar    1  UNL1       -0.0003
     33 C          68.9438   93.4010   15.5334 C.ar    1  UNL1       -0.0003
     34 C          67.6609   93.4031   16.3107 C.ar    1  UNL1       -0.0032
     35 C          66.5242   92.5222   15.8841 C.ar    1  UNL1       -0.0103
     36 C          65.2413   92.5242   16.6614 C.3     1  UNL1        0.0953
     37 N          64.1046   91.6434   16.2349 N.3     1  UNL1       -0.2934
     38 H          63.3086   92.2557   16.0561 H       1  UNL1        0.1236
@<TRIPOS>BOND
     1    19    20    2
     2    20    21    2
     3    20    22    1
     4    22    23    1
     5    23    24    1
     6    24    18    1
     7    18    16    1
     8    16    15    1
     9    15    14    1
    10    14    13    1
    11    13    12    1
    12    12     1    1
    13     1    27    1
    14    28    27    1
    15    28    29    1
    16    29    30    1
    17    30    31   ar
    18    31    32   ar
    19    32    33   ar
    20    33    34   ar
    21    34    35   ar
    22    35    36    1
    23    36    37    1
    24     2     1    1
    25     2     3    1
    26     3     4    1
    27     4     5    1
    28     5     6    1
    29     6     7   ar
    30     7     8   ar
    31     8     9   ar
    32     9    10   ar
    33    10    11   ar
    34    24    25    1
    35    25    26    1
    36    26    20    1
    37    37    28    1
    38    11     2    1
    39    35    30   ar
    40    11     6   ar
    41    16    17    1
    42    37    38    1
@<TRIPOS>MOLECULE
*****
 38 42 0 0 0
SMALL
GASTEIGER

@<TRIPOS>ATOM
      1 N          63.9714   89.9919   13.5875 N.3     1  UNL1       -0.2679
      2 C          64.8468   91.1745   13.8795 C.3     1  UNL1        0.0978
      3 C          65.3585   91.4035   15.2708 C.3     1  UNL1        0.0224
      4 C          66.2339   92.5860   15.5628 C.3     1  UNL1        0.0065
      5 C          66.5976   93.5396   14.4636 C.3     1  UNL1        0.0277
      6 C          66.0859   93.3106   13.0723 C.ar    1  UNL1       -0.0073
      7 C          66.4495   94.2642   11.9729 C.ar    1  UNL1       -0.0015
      8 C          65.9379   94.0352   10.5817 C.ar    1  UNL1        0.0203
      9 C          65.0625   92.8526   10.2897 C.ar    1  UNL1        0.0985
     10 N          64.6988   91.8990   11.3889 N.ar    1  UNL1       -0.2471
     11 C          65.2105   92.1280   12.7803 C.ar    1  UNL1        0.0695
     12 C          64.3992   88.6188   14.0135 C.3     1  UNL1        0.0725
     13 C          63.9232   88.0565   15.3202 C.3     1  UNL1        0.0188
     14 C          64.2186   86.6293   15.6747 C.3     1  UNL1        0.0185
     15 C          63.2206   85.8291   16.4579 C.3     1  UNL1        0.0686
     16 N          62.2227   84.9675   15.7423 N.3     1  UNL1       -0.2975
     17 H          61.3729   84.9707   16.3065 H       1  UNL1        0.1232
     18 C          62.5438   83.5316   15.4511 C.3     1  UNL1        0.0686
     19 O          64.6129   82.7089   10.1706 O.2     1  UNL1       -0.1730
     20 S          63.7031   82.2853   11.2855 S.O2    1  UNL1       -0.0100
     21 O          63.3854   81.2252   10.2730 O.2     1  UNL1       -0.1730
     22 C          62.6830   81.4935   12.0487 C.3     1  UNL1        0.1509
     23 C          62.2966   81.9089   13.4372 C.3     1  UNL1        0.0267
     24 C          62.9302   83.1161   14.0625 C.3     1  UNL1        0.0192
     25 C          63.9503   83.9079   13.2994 C.3     1  UNL1        0.0267
     26 C          64.3368   83.4925   11.9108 C.3     1  UNL1        0.1509
     27 C          62.6683   90.1825   12.8695 C.3     1  UNL1        0.0886
     28 C          62.2118   89.1691   11.8621 C.3     1  UNL1        0.0748
     29 C          61.3133   89.5841   10.7350 C.3     1  UNL1        0.0432
     30 C          60.8568   88.5707    9.7277 C.ar    1  UNL1       -0.0234
     31 C          59.9583   88.9857    8.6006 C.ar    1  UNL1       -0.0045
     32 C          59.5019   87.9724    7.5933 C.ar    1  UNL1       -0.0003
     33 C          59.9439   86.5440    7.7131 C.ar    1  UNL1       -0.0003
     34 C          60.8424   86.1290    8.8402 C.ar    1  UNL1       -0.0032
     35 C          61.2989   87.1423    9.8475 C.ar    1  UNL1       -0.0103
     36 C          62.1974   86.7274   10.9746 C.3     1  UNL1        0.0953
     37 N          62.6539   87.7407   11.9819 N.3     1  UNL1       -0.2934
     38 H          63.6735   87.7448   11.9543 H       1  UNL1        0.1236
@<TRIPOS>BOND
     1    19    20    2
     2    20    21    2
     3    20    22    1
     4    22    23    1
     5    23    24    1
     6    24    18    1
     7    18    16    1
     8    16    15    1
     9    15    14    1
    10    14    13    1
    11    13    12    1
    12    12     1    1
    13     1    27    1
    14    28    27    1
    15    28    29    1
    16    29    30    1
    17    30    31   ar
    18    31    32   ar
    19    32    33   ar
    20    33    34   ar
    21    34    35   ar
    22    35    36    1
    23    36    37    1
    24     2     1    1
    25     2     3    1
    26     3     4    1
    27     4     5    1
    28     5     6    1
    29     6     7   ar
    30     7     8   ar
    31     8     9   ar
    32     9    10   ar
    33    10    11   ar
    34    24    25    1
    35    25    26    1
    36    26    20    1
    37    37    28    1
    38    11     2    1
    39    35    30   ar
    40    11     6   ar
    41    16    17    1
    42    37    38    1
@<TRIPOS>MOLECULE
*****
 38 42 0 0 0
SMALL
GASTEIGER

@<TRIPOS>ATOM
      1 N          64.2552   90.2280   14.8978 N.3     1  UNL1       -0.2679
      2 C          65.1828   91.3910   14.7054 C.3     1  UNL1        0.0978
      3 C          65.9968   91.8998   15.8580 C.3     1  UNL1        0.0224
      4 C          66.9244   93.0628   15.6655 C.3     1  UNL1        0.0065
      5 C          67.0379   93.7170   14.3206 C.3     1  UNL1        0.0277
      6 C          66.2239   93.2082   13.1680 C.ar    1  UNL1       -0.0073
      7 C          66.3374   93.8625   11.8229 C.ar    1  UNL1       -0.0015
      8 C          65.5233   93.3537   10.6704 C.ar    1  UNL1        0.0203
      9 C          64.5958   92.1907   10.8628 C.ar    1  UNL1        0.0985
     10 N          64.4822   91.5364   12.2078 N.ar    1  UNL1       -0.2471
     11 C          65.2963   92.0452   13.3604 C.ar    1  UNL1        0.0695
     12 C          63.2961   90.2164   16.0510 C.3     1  UNL1        0.0725
     13 C          62.5339   88.9670   16.3801 C.3     1  UNL1        0.0188
     14 C          63.1318   87.9439   17.2997 C.3     1  UNL1        0.0185
     15 C          62.3601   86.7055   17.6469 C.3     1  UNL1        0.0686
     16 N          62.3391   85.5440   16.6978 N.3     1  UNL1       -0.2975
     17 H          62.2263   84.7031   17.2640 H       1  UNL1        0.1232
     18 C          63.5049   85.2992   15.7863 C.3     1  UNL1        0.0686
     19 O          62.5893   80.8632   12.2755 O.2     1  UNL1       -0.1730
     20 S          63.2049   82.2070   12.5308 S.O2    1  UNL1       -0.0100
     21 O          63.6673   81.9717   11.1234 O.2     1  UNL1       -0.1730
     22 C          63.9812   83.4691   12.2972 C.3     1  UNL1        0.1509
     23 C          64.0812   84.4998   13.3824 C.3     1  UNL1        0.0267
     24 C          63.4049   84.2684   14.7011 C.3     1  UNL1        0.0192
     25 C          62.6287   83.0063   14.9347 C.3     1  UNL1        0.0267
     26 C          62.5287   81.9756   13.8495 C.3     1  UNL1        0.1509
     27 C          64.2867   89.0765   13.9370 C.3     1  UNL1        0.0886
     28 C          63.1932   88.9157   12.9230 C.3     1  UNL1        0.0748
     29 C          63.1692   87.7103   12.0306 C.3     1  UNL1        0.0432
     30 C          62.0756   87.5494   11.0165 C.ar    1  UNL1       -0.0234
     31 C          62.0516   86.3440   10.1242 C.ar    1  UNL1       -0.0045
     32 C          60.9581   86.1832    9.1102 C.ar    1  UNL1       -0.0003
     33 C          59.8885   87.2278    8.9885 C.ar    1  UNL1       -0.0003
     34 C          59.9125   88.4332    9.8809 C.ar    1  UNL1       -0.0032
     35 C          61.0060   88.5940   10.8949 C.ar    1  UNL1       -0.0103
     36 C          61.0300   89.7995   11.7873 C.3     1  UNL1        0.0953
     37 N          62.1236   89.9603   12.8013 N.3     1  UNL1       -0.2934
     38 H          61.6719   90.0268   13.7135 H       1  UNL1        0.1236
@<TRIPOS>BOND
     1    19    20    2
     2    20    21    2
     3    20    22    1
     4    22    23    1
     5    23    24    1
     6    24    18    1
     7    18    16    1
     8    16    15    1
     9    15    14    1
    10    14    13    1
    11    13    12    1
    12    12     1    1
    13     1    27    1
    14    28    27    1
    15    28    29    1
    16    29    30    1
    17    30    31   ar
    18    31    32   ar
    19    32    33   ar
    20    33    34   ar
    21    34    35   ar
    22    35    36    1
    23    36    37    1
    24     2     1    1
    25     2     3    1
    26     3     4    1
    27     4     5    1
    28     5     6    1
    29     6     7   ar
    30     7     8   ar
    31     8     9   ar
    32     9    10   ar
    33    10    11   ar
    34    24    25    1
    35    25    26    1
    36    26    20    1
    37    37    28    1
    38    11     2    1
    39    35    30   ar
    40    11     6   ar
    41    16    17    1
    42    37    38    1
@<TRIPOS>MOLECULE
*****
 38 42 0 0 0
SMALL
GASTEIGER

@<TRIPOS>ATOM
      1 N          63.4335   88.8004   14.0884 N.3     1  UNL1       -0.2679
      2 C          63.2949   89.5424   12.7921 C.3     1  UNL1        0.0978
      3 C          64.0621   90.8118   12.5688 C.3     1  UNL1        0.0224
      4 C          63.9235   91.5537   11.2725 C.3     1  UNL1        0.0065
      5 C          63.0178   91.0262   10.1995 C.3     1  UNL1        0.0277
      6 C          62.2506   89.7568   10.4229 C.ar    1  UNL1       -0.0073
      7 C          61.3448   89.2292    9.3499 C.ar    1  UNL1       -0.0015
      8 C          60.5776   87.9598    9.5732 C.ar    1  UNL1        0.0203
      9 C          60.7162   87.2178   10.8695 C.ar    1  UNL1        0.0985
     10 N          61.6219   87.7453   11.9424 N.ar    1  UNL1       -0.2471
     11 C          62.3892   89.0149   11.7191 C.ar    1  UNL1        0.0695
     12 C          62.6594   89.2454   15.2937 C.3     1  UNL1        0.0725
     13 C          63.3826   89.7812   16.4937 C.3     1  UNL1        0.0188
     14 C          63.7674   91.2298   16.5525 C.3     1  UNL1        0.0185
     15 C          64.9295   91.7304   15.7470 C.3     1  UNL1        0.0686
     16 N          65.9069   92.6908   16.3572 N.3     1  UNL1       -0.2975
     17 H          65.3888   93.5435   16.5687 H       1  UNL1        0.1232
     18 C          67.1287   93.1050   15.5920 C.3     1  UNL1        0.0686
     19 O          66.5973   93.6381    9.9109 O.2     1  UNL1       -0.1730
     20 S          67.1448   92.9006   11.0967 S.O2    1  UNL1       -0.0100
     21 O          67.7006   92.0585    9.9868 O.2     1  UNL1       -0.1730
     22 C          67.8854   91.8705   11.8970 C.3     1  UNL1        0.1509
     23 C          67.8800   91.9386   13.3954 C.3     1  UNL1        0.0267
     24 C          67.1341   93.0368   14.0935 C.3     1  UNL1        0.0192
     25 C          66.3935   94.0669   13.2932 C.3     1  UNL1        0.0267
     26 C          66.3988   93.9988   11.7948 C.3     1  UNL1        0.1509
     27 C          64.3462   87.6136   14.1794 C.3     1  UNL1        0.0886
     28 C          63.7718   86.2300   14.2576 C.3     1  UNL1        0.0748
     29 C          63.7468   85.3582   13.0372 C.3     1  UNL1        0.0432
     30 C          63.1725   83.9747   13.1154 C.ar    1  UNL1       -0.0234
     31 C          63.1474   83.1029   11.8951 C.ar    1  UNL1       -0.0045
     32 C          62.5731   81.7195   11.9734 C.ar    1  UNL1       -0.0003
     33 C          62.0238   81.2078   13.2720 C.ar    1  UNL1       -0.0003
     34 C          62.0489   82.0796   14.4924 C.ar    1  UNL1       -0.0032
     35 C          62.6232   83.4630   14.4141 C.ar    1  UNL1       -0.0103
     36 C          62.6482   84.3349   15.6345 C.3     1  UNL1        0.0953
     37 N          63.2225   85.7183   15.5562 N.3     1  UNL1       -0.2934
     38 H          63.9831   85.7602   16.2345 H       1  UNL1        0.1236
@<TRIPOS>BOND
     1    19    20    2
     2    20    21    2
     3    20    22    1
     4    22    23    1
     5    23    24    1
     6    24    18    1
     7    18    16    1
     8    16    15    1
     9    15    14    1
    10    14    13    1
    11    13    12    1
    12    12     1    1
    13     1    27    1
    14    28    27    1
    15    28    29    1
    16    29    30    1
    17    30    31   ar
    18    31    32   ar
    19    32    33   ar
    20    33    34   ar
    21    34    35   ar
    22    35    36    1
    23    36    37    1
    24     2     1    1
    25     2     3    1
    26     3     4    1
    27     4     5    1
    28     5     6    1
    29     6     7   ar
    30     7     8   ar
    31     8     9   ar
    32     9    10   ar
    33    10    11   ar
    34    24    25    1
    35    25    26    1
    36    26    20    1
    37    37    28    1
    38    11     2    1
    39    35    30   ar
    40    11     6   ar
    41    16    17    1
    42    37    38    1
@<TRIPOS>MOLECULE
*****
 38 42 0 0 0
SMALL
GASTEIGER

@<TRIPOS>ATOM
      1 N          60.9800   87.5119   10.3117 N.3     1  UNL1       -0.2679
      2 C          61.8628   86.3622    9.9259 C.3     1  UNL1        0.0978
      3 C          62.2077   86.1322    8.4843 C.3     1  UNL1        0.0224
      4 C          63.0905   84.9825    8.0986 C.3     1  UNL1        0.0065
      5 C          63.6284   84.0627    9.1543 C.3     1  UNL1        0.0277
      6 C          63.2834   84.2927   10.5959 C.ar    1  UNL1       -0.0073
      7 C          63.8213   83.3729   11.6517 C.ar    1  UNL1       -0.0015
      8 C          63.4763   83.6028   13.0933 C.ar    1  UNL1        0.0203
      9 C          62.5935   84.7525   13.4790 C.ar    1  UNL1        0.0985
     10 N          62.0557   85.6723   12.4233 N.ar    1  UNL1       -0.2471
     11 C          62.4006   85.4424   10.9816 C.ar    1  UNL1        0.0695
     12 C          59.8005   87.8713    9.4575 C.3     1  UNL1        0.0725
     13 C          59.9149   88.9732    8.4461 C.3     1  UNL1        0.0188
     14 C          59.3761   88.7778    7.0600 C.3     1  UNL1        0.0185
     15 C          58.9917   89.9668    6.2303 C.3     1  UNL1        0.0686
     16 N          60.0536   90.7961    5.5708 N.3     1  UNL1       -0.2975
     17 H          60.4990   91.3438    6.3071 H       1  UNL1        0.1232
     18 C          59.6850   91.7567    4.4793 C.3     1  UNL1        0.0686
     19 O          64.2599   92.9614    1.2451 O.2     1  UNL1       -0.1730
     20 S          62.8331   93.2304    1.6214 S.O2    1  UNL1       -0.0100
     21 O          63.0138   94.2521    0.5381 O.2     1  UNL1       -0.1730
     22 C          61.4689   93.8543    1.6214 C.3     1  UNL1        0.1509
     23 C          60.4196   93.3631    2.5740 C.3     1  UNL1        0.0267
     24 C          60.7344   92.2480    3.5266 C.3     1  UNL1        0.0192
     25 C          62.0985   91.6241    3.5266 C.3     1  UNL1        0.0267
     26 C          63.1478   92.1153    2.5740 C.3     1  UNL1        0.1509
     27 C          61.2767   88.3021   11.5516 C.3     1  UNL1        0.0886
     28 C          62.2812   89.4153   11.5091 C.3     1  UNL1        0.0748
     29 C          63.1588   89.6794   12.6965 C.3     1  UNL1        0.0432
     30 C          64.1633   90.7926   12.6540 C.ar    1  UNL1       -0.0234
     31 C          65.0409   91.0566   13.8415 C.ar    1  UNL1       -0.0045
     32 C          66.0454   92.1698   13.7990 C.ar    1  UNL1       -0.0003
     33 C          66.1723   93.0188   12.5690 C.ar    1  UNL1       -0.0003
     34 C          65.2948   92.7548   11.3815 C.ar    1  UNL1       -0.0032
     35 C          64.2903   91.6416   11.4240 C.ar    1  UNL1       -0.0103
     36 C          63.4127   91.3775   10.2365 C.3     1  UNL1        0.0953
     37 N          62.4082   90.2644   10.2790 N.3     1  UNL1       -0.2934
     38 H          62.6334   89.6349    9.5087 H       1  UNL1        0.1236
@<TRIPOS>BOND
     1    19    20    2
     2    20    21    2
     3    20    22    1
     4    22    23    1
     5    23    24    1
     6    24    18    1
     7    18    16    1
     8    16    15    1
     9    15    14    1
    10    14    13    1
    11    13    12    1
    12    12     1    1
    13     1    27    1
    14    28    27    1
    15    28    29    1
    16    29    30    1
    17    30    31   ar
    18    31    32   ar
    19    32    33   ar
    20    33    34   ar
    21    34    35   ar
    22    35    36    1
    23    36    37    1
    24     2     1    1
    25     2     3    1
    26     3     4    1
    27     4     5    1
    28     5     6    1
    29     6     7   ar
    30     7     8   ar
    31     8     9   ar
    32     9    10   ar
    33    10    11   ar
    34    24    25    1
    35    25    26    1
    36    26    20    1
    37    37    28    1
    38    11     2    1
    39    35    30   ar
    40    11     6   ar
    41    16    17    1
    42    37    38    1
@<TRIPOS>MOLECULE
*****
 38 42 0 0 0
SMALL
GASTEIGER

@<TRIPOS>ATOM
      1 N          63.1222   84.7123   14.4291 N.3     1  UNL1       -0.2679
      2 C          62.7286   83.3413   13.9651 C.3     1  UNL1        0.0978
      3 C          61.8683   82.4733   14.8349 C.3     1  UNL1        0.0224
      4 C          61.4748   81.1023   14.3709 C.3     1  UNL1        0.0065
      5 C          61.9415   80.5991   13.0371 C.3     1  UNL1        0.0277
      6 C          62.8018   81.4670   12.1674 C.ar    1  UNL1       -0.0073
      7 C          63.2686   80.9639   10.8336 C.ar    1  UNL1       -0.0015
      8 C          64.1290   81.8318    9.9638 C.ar    1  UNL1        0.0203
      9 C          64.5225   83.2029   10.4278 C.ar    1  UNL1        0.0985
     10 N          64.0557   83.7060   11.7615 N.ar    1  UNL1       -0.2471
     11 C          63.1954   82.8381   12.6314 C.ar    1  UNL1        0.0695
     12 C          62.7107   85.1904   15.7900 C.3     1  UNL1        0.0725
     13 C          63.5037   86.2602   16.4806 C.3     1  UNL1        0.0188
     14 C          62.7981   87.3484   17.2342 C.3     1  UNL1        0.0185
     15 C          63.2002   88.7798   17.0364 C.3     1  UNL1        0.0686
     16 N          63.3994   89.3183   15.6506 N.3     1  UNL1       -0.2975
     17 H          64.2333   88.8660   15.2760 H       1  UNL1        0.1232
     18 C          63.5734   90.7927   15.4367 C.3     1  UNL1        0.0686
     19 O          68.8517   92.4881   13.9852 O.2     1  UNL1       -0.1730
     20 S          67.6979   92.5233   14.9430 S.O2    1  UNL1       -0.0100
     21 O          68.6504   93.4423   15.6488 O.2     1  UNL1       -0.1730
     22 C          66.8749   92.8776   16.1460 C.3     1  UNL1        0.1509
     23 C          65.5001   92.3008   16.3106 C.3     1  UNL1        0.0267
     24 C          64.9483   91.3696   15.2722 C.3     1  UNL1        0.0192
     25 C          65.7713   91.0152   14.0692 C.3     1  UNL1        0.0267
     26 C          67.1461   91.5920   13.9047 C.3     1  UNL1        0.1509
     27 C          63.9272   85.6053   13.5322 C.3     1  UNL1        0.0886
     28 C          63.2383   86.6264   12.6761 C.3     1  UNL1        0.0748
     29 C          62.3012   86.1859   11.5908 C.3     1  UNL1        0.0432
     30 C          61.6123   87.2070   10.7347 C.ar    1  UNL1       -0.0234
     31 C          60.6752   86.7666    9.6494 C.ar    1  UNL1       -0.0045
     32 C          59.9863   87.7876    8.7933 C.ar    1  UNL1       -0.0003
     33 C          60.2345   89.2491    9.0225 C.ar    1  UNL1       -0.0003
     34 C          61.1716   89.6895   10.1078 C.ar    1  UNL1       -0.0032
     35 C          61.8605   88.6685   10.9639 C.ar    1  UNL1       -0.0103
     36 C          62.7977   89.1089   12.0492 C.3     1  UNL1        0.0953
     37 N          63.4865   88.0878   12.9053 N.3     1  UNL1       -0.2934
     38 H          63.2197   88.2841   13.8700 H       1  UNL1        0.1236
@<TRIPOS>BOND
     1    19    20    2
     2    20    21    2
     3    20    22    1
     4    22    23    1
     5    23    24    1
     6    24    18    1
     7    18    16    1
     8    16    15    1
     9    15    14    1
    10    14    13    1
    11    13    12    1
    12    12     1    1
    13     1    27    1
    14    28    27    1
    15    28    29    1
    16    29    30    1
    17    30    31   ar
    18    31    32   ar
    19    32    33   ar
    20    33    34   ar
    21    34    35   ar
    22    35    36    1
    23    36    37    1
    24     2     1    1
    25     2     3    1
    26     3     4    1
    27     4     5    1
    28     5     6    1
    29     6     7   ar
    30     7     8   ar
    31     8     9   ar
    32     9    10   ar
    33    10    11   ar
    34    24    25    1
    35    25    26    1
    36    26    20    1
    37    37    28    1
    38    11     2    1
    39    35    30   ar
    40    11     6   ar
    41    16    17    1
    42    37    38    1
@<TRIPOS>MOLECULE
*****
 38 42 0 0 0
SMALL
GASTEIGER

@<TRIPOS>ATOM
      1 N          63.3466   85.1649   13.4555 N.3     1  UNL1       -0.2679
      2 C          63.4862   84.0238   12.4921 C.3     1  UNL1        0.0978
      3 C          64.2044   84.2245   11.1906 C.3     1  UNL1        0.0224
      4 C          64.3440   83.0834   10.2272 C.3     1  UNL1        0.0065
      5 C          63.7653   81.7414   10.5651 C.3     1  UNL1        0.0277
      6 C          63.0471   81.5406   11.8666 C.ar    1  UNL1       -0.0073
      7 C          62.4683   80.1986   12.2046 C.ar    1  UNL1       -0.0015
      8 C          61.7501   79.9979   13.5060 C.ar    1  UNL1        0.0203
      9 C          61.6105   81.1390   14.4695 C.ar    1  UNL1        0.0985
     10 N          62.1892   82.4810   14.1315 N.ar    1  UNL1       -0.2471
     11 C          62.9075   82.6818   12.8300 C.ar    1  UNL1        0.0695
     12 C          62.9412   84.9023   14.8756 C.3     1  UNL1        0.0725
     13 C          63.6619   85.5852   16.0000 C.3     1  UNL1        0.0188
     14 C          62.8837   86.2861   17.0737 C.3     1  UNL1        0.0185
     15 C          62.9338   87.7813   17.1817 C.3     1  UNL1        0.0686
     16 N          63.4528   88.5990   16.0362 N.3     1  UNL1       -0.2975
     17 H          64.4408   88.3675   15.9330 H       1  UNL1        0.1232
     18 C          63.3611   90.0955   16.0807 C.3     1  UNL1        0.0686
     19 O          67.0664   92.7735   12.6252 O.2     1  UNL1       -0.1730
     20 S          66.4541   92.6027   13.9838 S.O2    1  UNL1       -0.0100
     21 O          67.4213   93.7125   14.2716 O.2     1  UNL1       -0.1730
     22 C          66.1777   92.8174   15.4424 C.3     1  UNL1        0.1509
     23 C          65.1468   91.9817   16.1414 C.3     1  UNL1        0.0267
     24 C          64.3921   90.9313   15.3818 C.3     1  UNL1        0.0192
     25 C          64.6685   90.7166   13.9232 C.3     1  UNL1        0.0267
     26 C          65.6994   91.5523   13.2242 C.3     1  UNL1        0.1509
     27 C          63.6126   86.5687   12.9990 C.3     1  UNL1        0.0886
     28 C          62.7292   87.2011   11.9646 C.3     1  UNL1        0.0748
     29 C          62.0772   86.3515   10.9144 C.3     1  UNL1        0.0432
     30 C          61.1938   86.9838    9.8800 C.ar    1  UNL1       -0.0234
     31 C          60.5418   86.1342    8.8298 C.ar    1  UNL1       -0.0045
     32 C          59.6584   86.7666    7.7955 C.ar    1  UNL1       -0.0003
     33 C          59.4271   88.2485    7.8115 C.ar    1  UNL1       -0.0003
     34 C          60.0791   89.0981    8.8617 C.ar    1  UNL1       -0.0032
     35 C          60.9624   88.4658    9.8960 C.ar    1  UNL1       -0.0103
     36 C          61.6145   89.3154   10.9462 C.3     1  UNL1        0.0953
     37 N          62.4978   88.6831   11.9805 N.3     1  UNL1       -0.2934
     38 H          62.0944   88.9083   12.8899 H       1  UNL1        0.1236
@<TRIPOS>BOND
     1    19    20    2
     2    20    21    2
     3    20    22    1
     4    22    23    1
     5    23    24    1
     6    24    18    1
     7    18    16    1
     8    16    15    1
     9    15    14    1
    10    14    13    1
    11    13    12    1
    12    12     1    1
    13     1    27    1
    14    28    27    1
    15    28    29    1
    16    29    30    1
    17    30    31   ar
    18    31    32   ar
    19    32    33   ar
    20    33    34   ar
    21    34    35   ar
    22    35    36    1
    23    36    37    1
    24     2     1    1
    25     2     3    1
    26     3     4    1
    27     4     5    1
    28     5     6    1
    29     6     7   ar
    30     7     8   ar
    31     8     9   ar
    32     9    10   ar
    33    10    11   ar
    34    24    25    1
    35    25    26    1
    36    26    20    1
    37    37    28    1
    38    11     2    1
    39    35    30   ar
    40    11     6   ar
    41    16    17    1
    42    37    38    1
