@<TRIPOS>MOLECULE
*****
 29 31 0 0 0
SMALL
GASTEIGER

@<TRIPOS>ATOM
      1 C          62.5284   89.4677   11.5604 C.ar    1  UNL1        0.1790
      2 C          62.6520   90.2162   10.2663 C.ar    1  UNL1        0.0406
      3 C          63.4843   91.4622   10.1971 C.ar    1  UNL1        0.0034
      4 C          64.1931   91.9597   11.4219 C.ar    1  UNL1        0.0039
      5 C          64.0695   91.2112   12.7159 C.ar    1  UNL1        0.0401
      6 C          63.2372   89.9652   12.7852 C.ar    1  UNL1        0.1730
      7 C          65.0255   93.2057   11.3526 C.2     1  UNL1        0.0113
      8 C          66.3013   93.2124   10.5638 C.2     1  UNL1        0.0873
      9 S          66.8695   92.0555    9.7964 S.3     1  UNL1       -0.0254
     10 C          68.1523   92.5054    9.1622 C.2     1  UNL1        0.2832
     11 O          69.0525   91.6674    8.3033 O.2     1  UNL1       -0.2622
     12 N          68.3769   93.9402    9.5376 N.am    1  UNL1       -0.2425
     13 C          67.2328   94.3771   10.4038 C.2     1  UNL1        0.2583
     14 O          67.0522   95.7396   11.0046 O.2     1  UNL1       -0.2692
     15 H          69.1409   94.4973    9.2635 H       1  UNL1        0.1587
     16 O          63.1136   89.2168   14.0792 O.3     1  UNL1       -0.4684
     17 C          63.6017   89.8379   15.3544 C.3     1  UNL1        0.2526
     18 O          61.6960   88.2218   11.6296 O.3     1  UNL1       -0.4496
     19 C          63.6678   84.1832   11.4025 C.ar    1  UNL1        0.0767
     20 C          63.6589   84.9417   12.6965 C.ar    1  UNL1        0.0096
     21 C          63.0017   86.2880   12.7722 C.ar    1  UNL1        0.0386
     22 C          62.3533   86.8756   11.5539 C.ar    1  UNL1        0.1559
     23 C          62.3621   86.1170   10.2600 C.ar    1  UNL1        0.0923
     24 CL         61.7137   86.7046    9.0416 Cl      1  UNL1       -0.0791
     25 C          63.0194   84.7708   10.1843 C.ar    1  UNL1        0.0209
     26 C          64.3250   82.8369   11.3268 C.2     1  UNL1        0.3414
     27 O          64.7555   82.2861    9.9998 O.2     1  UNL1       -0.2449
     28 C          63.4613   81.1637   13.1168 C.3     1  UNL1        0.2560
     29 O          64.5518   82.0416   12.5782 O.3     1  UNL1       -0.4413
@<TRIPOS>BOND
     1    28    29    1
     2    29    26    1
     3    26    27    2
     4    26    19    1
     5    19    20   ar
     6    20    21   ar
     7    21    22   ar
     8    22    18    1
     9    18     1    1
    10     1     2   ar
    11     2     3   ar
    12     3     4   ar
    13     4     7    1
    14     7     8    2
    15     8     9    1
    16     9    10    1
    17    10    11    2
    18    10    12   am
    19    12    13   am
    20    13    14    2
    21     4     5   ar
    22     5     6   ar
    23     6    16    1
    24    16    17    1
    25    22    23   ar
    26    23    24    1
    27    23    25   ar
    28    25    19   ar
    29     6     1   ar
    30    13     8    1
    31    12    15    1
@<TRIPOS>MOLECULE
*****
 29 31 0 0 0
SMALL
GASTEIGER

@<TRIPOS>ATOM
      1 C          62.0157   88.4752   11.0672 C.ar    1  UNL1        0.1790
      2 C          62.7904   87.6642   12.0633 C.ar    1  UNL1        0.0406
      3 C          62.9772   86.1915   11.8485 C.ar    1  UNL1        0.0034
      4 C          62.3893   85.5297   10.6375 C.ar    1  UNL1        0.0039
      5 C          61.6146   86.3406    9.6414 C.ar    1  UNL1        0.0401
      6 C          61.4278   87.8134    9.8562 C.ar    1  UNL1        0.1730
      7 C          62.5761   84.0570   10.4227 C.2     1  UNL1        0.0113
      8 C          62.9430   83.1714   11.5764 C.2     1  UNL1        0.0873
      9 S          63.1555   83.6130   12.9942 S.3     1  UNL1       -0.0254
     10 C          63.5057   82.4032   13.8089 C.2     1  UNL1        0.2832
     11 O          63.8002   82.3858   15.2796 O.2     1  UNL1       -0.2622
     12 N          63.5096   81.2139   12.8948 N.am    1  UNL1       -0.2425
     13 C          63.1618   81.6887   11.5151 C.2     1  UNL1        0.2583
     14 O          63.0522   80.8312   10.2892 O.2     1  UNL1       -0.2692
     15 H          63.7059   80.2848   13.1548 H       1  UNL1        0.1587
     16 O          60.6531   88.6243    8.8602 O.3     1  UNL1       -0.4684
     17 C          59.6018   87.9687    8.0147 C.3     1  UNL1        0.2526
     18 O          61.8289   89.9479   11.2821 O.3     1  UNL1       -0.4496
     19 C          65.4069   92.5987   11.9312 C.ar    1  UNL1        0.0767
     20 C          64.8200   92.4539   10.5585 C.ar    1  UNL1        0.0096
     21 C          63.6273   91.5703   10.3421 C.ar    1  UNL1        0.0386
     22 C          63.0216   90.8315   11.4984 C.ar    1  UNL1        0.1559
     23 C          63.6085   90.9763   12.8712 C.ar    1  UNL1        0.0923
     24 CL         63.0028   90.2375   14.0276 Cl      1  UNL1       -0.0791
     25 C          64.8012   91.8599   13.0876 C.ar    1  UNL1        0.0209
     26 C          66.5996   93.4823   12.1476 C.2     1  UNL1        0.3414
     27 O          67.2893   93.4983   13.4795 O.2     1  UNL1       -0.2449
     28 C          66.5516   95.7333   10.8512 C.3     1  UNL1        0.2560
     29 O          67.1025   94.3499   11.0321 O.3     1  UNL1       -0.4413
@<TRIPOS>BOND
     1    28    29    1
     2    29    26    1
     3    26    27    2
     4    26    19    1
     5    19    20   ar
     6    20    21   ar
     7    21    22   ar
     8    22    18    1
     9    18     1    1
    10     1     2   ar
    11     2     3   ar
    12     3     4   ar
    13     4     7    1
    14     7     8    2
    15     8     9    1
    16     9    10    1
    17    10    11    2
    18    10    12   am
    19    12    13   am
    20    13    14    2
    21     4     5   ar
    22     5     6   ar
    23     6    16    1
    24    16    17    1
    25    22    23   ar
    26    23    24    1
    27    23    25   ar
    28    25    19   ar
    29     6     1   ar
    30    13     8    1
    31    12    15    1
@<TRIPOS>MOLECULE
*****
 29 31 0 0 0
SMALL
GASTEIGER

@<TRIPOS>ATOM
      1 C          62.4926   88.3850   11.3628 C.ar    1  UNL1        0.1790
      2 C          63.3132   88.2585   12.6122 C.ar    1  UNL1        0.0406
      3 C          64.0283   89.4560   13.1641 C.ar    1  UNL1        0.0034
      4 C          63.9230   90.7798   12.4668 C.ar    1  UNL1        0.0039
      5 C          63.1025   90.9063   11.2175 C.ar    1  UNL1        0.0401
      6 C          62.3873   89.7088   10.6655 C.ar    1  UNL1        0.1730
      7 C          64.6382   91.9773   13.0188 C.2     1  UNL1        0.0113
      8 C          65.5170   92.8031   12.1268 C.2     1  UNL1        0.0873
      9 S          65.7758   92.5557   10.6701 S.3     1  UNL1       -0.0254
     10 C          66.7100   93.6211   10.1779 C.2     1  UNL1        0.2832
     11 O          67.2337   93.7568    8.7788 O.2     1  UNL1       -0.2622
     12 N          67.0285   94.5269   11.3302 N.am    1  UNL1       -0.2425
     13 C          66.2912   94.0214   12.5347 C.2     1  UNL1        0.2583
     14 O          66.3226   94.6277   13.9064 O.2     1  UNL1       -0.2692
     15 H          67.6180   95.3149   11.3012 H       1  UNL1        0.1587
     16 O          61.5668   89.8353    9.4162 O.3     1  UNL1       -0.4684
     17 C          60.0723   89.7279    9.4863 C.3     1  UNL1        0.2526
     18 O          61.7775   87.1876   10.8109 O.3     1  UNL1       -0.4496
     19 C          63.2847   83.0473   11.7252 C.ar    1  UNL1        0.0767
     20 C          62.6676   83.8776   12.8113 C.ar    1  UNL1        0.0096
     21 C          62.1652   85.2577   12.5065 C.ar    1  UNL1        0.0386
     22 C          62.2799   85.8075   11.1157 C.ar    1  UNL1        0.1559
     23 C          62.8970   84.9771   10.0296 C.ar    1  UNL1        0.0923
     24 CL         63.0117   85.5268    8.6386 Cl      1  UNL1       -0.0791
     25 C          63.3994   83.5970   10.3343 C.ar    1  UNL1        0.0209
     26 C          63.7871   81.6672   12.0300 C.2     1  UNL1        0.3414
     27 O          65.2412   81.4464   12.3245 O.2     1  UNL1       -0.2449
     28 C          62.2442   80.0343   13.3350 C.3     1  UNL1        0.2560
     29 O          62.8354   80.5078   12.0403 O.3     1  UNL1       -0.4413
@<TRIPOS>BOND
     1    28    29    1
     2    29    26    1
     3    26    27    2
     4    26    19    1
     5    19    20   ar
     6    20    21   ar
     7    21    22   ar
     8    22    18    1
     9    18     1    1
    10     1     2   ar
    11     2     3   ar
    12     3     4   ar
    13     4     7    1
    14     7     8    2
    15     8     9    1
    16     9    10    1
    17    10    11    2
    18    10    12   am
    19    12    13   am
    20    13    14    2
    21     4     5   ar
    22     5     6   ar
    23     6    16    1
    24    16    17    1
    25    22    23   ar
    26    23    24    1
    27    23    25   ar
    28    25    19   ar
    29     6     1   ar
    30    13     8    1
    31    12    15    1
@<TRIPOS>MOLECULE
*****
 29 31 0 0 0
SMALL
GASTEIGER

@<TRIPOS>ATOM
      1 C          63.2318   87.5445   12.6076 C.ar    1  UNL1        0.1790
      2 C          63.9983   87.1957   13.8490 C.ar    1  UNL1        0.0406
      3 C          64.6453   88.2789   14.6601 C.ar    1  UNL1        0.0034
      4 C          64.5258   89.7109   14.2300 C.ar    1  UNL1        0.0039
      5 C          63.7593   90.0598   12.9887 C.ar    1  UNL1        0.0401
      6 C          63.1123   88.9765   12.1775 C.ar    1  UNL1        0.1730
      7 C          65.1728   90.7942   15.0412 C.2     1  UNL1        0.0113
      8 C          65.7889   91.9778   14.3561 C.2     1  UNL1        0.0873
      9 S          65.8345   92.2144   12.8755 S.3     1  UNL1       -0.0254
     10 C          66.5414   93.5155   12.6356 C.2     1  UNL1        0.2832
     11 O          66.8098   94.1395   11.2983 O.2     1  UNL1       -0.2622
     12 N          66.9328   94.0830   13.9679 N.am    1  UNL1       -0.2425
     13 C          66.4677   93.1326   15.0311 C.2     1  UNL1        0.2583
     14 O          66.6496   93.3065   16.5099 O.2     1  UNL1       -0.2692
     15 H          67.4109   94.9303   14.1180 H       1  UNL1        0.1587
     16 O          62.3458   89.3253   10.9362 O.3     1  UNL1       -0.4684
     17 C          62.6210   90.6157   10.2226 C.3     1  UNL1        0.2526
     18 O          62.5848   86.4613   11.7965 O.3     1  UNL1       -0.4496
     19 C          62.6630   82.2054   13.2566 C.ar    1  UNL1        0.0767
     20 C          62.3183   83.3169   14.2030 C.ar    1  UNL1        0.0096
     21 C          62.2922   84.7355   13.7163 C.ar    1  UNL1        0.0386
     22 C          62.6109   85.0427   12.2832 C.ar    1  UNL1        0.1559
     23 C          62.9556   83.9312   11.3367 C.ar    1  UNL1        0.0923
     24 CL         63.2743   84.2384    9.9034 Cl      1  UNL1       -0.0791
     25 C          62.9817   82.5126   11.8234 C.ar    1  UNL1        0.0209
     26 C          62.6891   80.7868   13.7433 C.2     1  UNL1        0.3414
     27 O          63.9304   80.2348   14.3791 O.2     1  UNL1       -0.2449
     28 C          60.1541   80.3790   14.1397 C.3     1  UNL1        0.2560
     29 O          61.4739   79.9203   13.5941 O.3     1  UNL1       -0.4413
@<TRIPOS>BOND
     1    28    29    1
     2    29    26    1
     3    26    27    2
     4    26    19    1
     5    19    20   ar
     6    20    21   ar
     7    21    22   ar
     8    22    18    1
     9    18     1    1
    10     1     2   ar
    11     2     3   ar
    12     3     4   ar
    13     4     7    1
    14     7     8    2
    15     8     9    1
    16     9    10    1
    17    10    11    2
    18    10    12   am
    19    12    13   am
    20    13    14    2
    21     4     5   ar
    22     5     6   ar
    23     6    16    1
    24    16    17    1
    25    22    23   ar
    26    23    24    1
    27    23    25   ar
    28    25    19   ar
    29     6     1   ar
    30    13     8    1
    31    12    15    1
@<TRIPOS>MOLECULE
*****
 29 31 0 0 0
SMALL
GASTEIGER

@<TRIPOS>ATOM
      1 C          62.2491   88.9723   11.3928 C.ar    1  UNL1        0.1790
      2 C          62.2616   89.7842   10.1315 C.ar    1  UNL1        0.0406
      3 C          63.1213   91.0097   10.0369 C.ar    1  UNL1        0.0034
      4 C          63.9686   91.4233   11.2035 C.ar    1  UNL1        0.0039
      5 C          63.9562   90.6115   12.4647 C.ar    1  UNL1        0.0401
      6 C          63.0964   89.3860   12.5594 C.ar    1  UNL1        0.1730
      7 C          64.8285   92.6489   11.1088 C.2     1  UNL1        0.0113
      8 C          65.6064   93.1134   12.3042 C.2     1  UNL1        0.0873
      9 S          65.6238   92.4586   13.6537 S.3     1  UNL1       -0.0254
     10 C          66.5317   93.2548   14.5435 C.2     1  UNL1        0.2832
     11 O          66.8415   92.9565   15.9805 O.2     1  UNL1       -0.2622
     12 N          67.0754   94.4017   13.7440 N.am    1  UNL1       -0.2425
     13 C          66.5035   94.3143   12.3601 C.2     1  UNL1        0.2583
     14 O          66.7801   95.2615   11.2304 O.2     1  UNL1       -0.2692
     15 H          67.6982   95.0908   14.0704 H       1  UNL1        0.1587
     16 O          63.0839   88.5742   13.8206 O.3     1  UNL1       -0.4684
     17 C          64.3671   88.2953   14.5458 C.3     1  UNL1        0.2526
     18 O          61.3893   87.7469   11.4874 O.3     1  UNL1       -0.4496
     19 C          63.2688   83.6615   11.3234 C.ar    1  UNL1        0.0767
     20 C          62.9498   84.2876   12.6485 C.ar    1  UNL1        0.0096
     21 C          62.3233   85.6494   12.7032 C.ar    1  UNL1        0.0386
     22 C          62.0158   86.3851   11.4327 C.ar    1  UNL1        0.1559
     23 C          62.3348   85.7589   10.1076 C.ar    1  UNL1        0.0923
     24 CL         62.0273   86.4946    8.8370 Cl      1  UNL1       -0.0791
     25 C          62.9613   84.3971   10.0529 C.ar    1  UNL1        0.0209
     26 C          63.8953   82.2997   11.2687 C.2     1  UNL1        0.3414
     27 O          64.5964   81.8461   10.0226 O.2     1  UNL1       -0.2449
     28 C          62.7245   80.3724   12.5589 C.3     1  UNL1        0.2560
     29 O          63.8207   81.3914   12.4601 O.3     1  UNL1       -0.4413
@<TRIPOS>BOND
     1    28    29    1
     2    29    26    1
     3    26    27    2
     4    26    19    1
     5    19    20   ar
     6    20    21   ar
     7    21    22   ar
     8    22    18    1
     9    18     1    1
    10     1     2   ar
    11     2     3   ar
    12     3     4   ar
    13     4     7    1
    14     7     8    2
    15     8     9    1
    16     9    10    1
    17    10    11    2
    18    10    12   am
    19    12    13   am
    20    13    14    2
    21     4     5   ar
    22     5     6   ar
    23     6    16    1
    24    16    17    1
    25    22    23   ar
    26    23    24    1
    27    23    25   ar
    28    25    19   ar
    29     6     1   ar
    30    13     8    1
    31    12    15    1
@<TRIPOS>MOLECULE
*****
 29 31 0 0 0
SMALL
GASTEIGER

@<TRIPOS>ATOM
      1 C          62.5666   88.0406   12.1702 C.ar    1  UNL1        0.1790
      2 C          61.9624   87.6563   10.8521 C.ar    1  UNL1        0.0406
      3 C          62.1191   86.2572   10.3346 C.ar    1  UNL1        0.0034
      4 C          62.8801   85.2423   11.1352 C.ar    1  UNL1        0.0039
      5 C          63.4843   85.6265   12.4533 C.ar    1  UNL1        0.0401
      6 C          63.3275   87.0257   12.9708 C.ar    1  UNL1        0.1730
      7 C          63.0369   83.8431   10.6177 C.2     1  UNL1        0.0113
      8 C          62.8855   82.6775   11.5496 C.2     1  UNL1        0.0873
      9 S          62.5794   82.7549   13.0160 S.3     1  UNL1       -0.0254
     10 C          62.5184   81.3550   13.5513 C.2     1  UNL1        0.2832
     11 O          62.2382   80.9661   14.9727 O.2     1  UNL1       -0.2622
     12 N          62.7868   80.4124   12.4158 N.am    1  UNL1       -0.2425
     13 C          63.0136   81.2297   11.1787 C.2     1  UNL1        0.2583
     14 O          63.3157   80.6934    9.8108 O.2     1  UNL1       -0.2692
     15 H          62.8099   79.4298   12.4725 H       1  UNL1        0.1587
     16 O          63.9317   87.4100   14.2888 O.3     1  UNL1       -0.4684
     17 C          64.3055   86.3485   15.2805 C.3     1  UNL1        0.2526
     18 O          62.4098   89.4398   12.6876 O.3     1  UNL1       -0.4496
     19 C          65.4009   92.6056   11.5560 C.ar    1  UNL1        0.0767
     20 C          64.4366   92.0846   10.5320 C.ar    1  UNL1        0.0096
     21 C          63.4396   91.0293   10.9092 C.ar    1  UNL1        0.0386
     22 C          63.4068   90.4951   12.3104 C.ar    1  UNL1        0.1559
     23 C          64.3712   91.0161   13.3344 C.ar    1  UNL1        0.0923
     24 CL         64.3385   90.4818   14.7357 Cl      1  UNL1       -0.0791
     25 C          65.3682   92.0714   12.9572 C.ar    1  UNL1        0.0209
     26 C          66.3979   93.6609   11.1788 C.2     1  UNL1        0.3414
     27 O          66.1833   95.0826   11.6063 O.2     1  UNL1       -0.2449
     28 C          67.9618   94.0829    9.1474 C.3     1  UNL1        0.2560
     29 O          67.6096   93.2946   10.3740 O.3     1  UNL1       -0.4413
@<TRIPOS>BOND
     1    28    29    1
     2    29    26    1
     3    26    27    2
     4    26    19    1
     5    19    20   ar
     6    20    21   ar
     7    21    22   ar
     8    22    18    1
     9    18     1    1
    10     1     2   ar
    11     2     3   ar
    12     3     4   ar
    13     4     7    1
    14     7     8    2
    15     8     9    1
    16     9    10    1
    17    10    11    2
    18    10    12   am
    19    12    13   am
    20    13    14    2
    21     4     5   ar
    22     5     6   ar
    23     6    16    1
    24    16    17    1
    25    22    23   ar
    26    23    24    1
    27    23    25   ar
    28    25    19   ar
    29     6     1   ar
    30    13     8    1
    31    12    15    1
@<TRIPOS>MOLECULE
*****
 29 31 0 0 0
SMALL
GASTEIGER

@<TRIPOS>ATOM
      1 C          62.3215   87.9971   11.6211 C.ar    1  UNL1        0.1790
      2 C          62.9687   87.0471   12.5848 C.ar    1  UNL1        0.0406
      3 C          63.2125   85.6224   12.1840 C.ar    1  UNL1        0.0034
      4 C          62.8091   85.1476   10.8195 C.ar    1  UNL1        0.0039
      5 C          62.1619   86.0975    9.8558 C.ar    1  UNL1        0.0401
      6 C          61.9181   87.5223   10.2566 C.ar    1  UNL1        0.1730
      7 C          63.0530   83.7228   10.4186 C.2     1  UNL1        0.0113
      8 C          62.8912   82.6224   11.4251 C.2     1  UNL1        0.0873
      9 S          62.4928   82.7926   12.8612 S.3     1  UNL1       -0.0254
     10 C          62.4549   81.4340   13.4958 C.2     1  UNL1        0.2832
     11 O          62.1037   81.1373   14.9236 O.2     1  UNL1       -0.2622
     12 N          62.8298   80.4241   12.4520 N.am    1  UNL1       -0.2425
     13 C          63.0995   81.1586   11.1722 C.2     1  UNL1        0.2583
     14 O          63.5061   80.5382    9.8684 O.2     1  UNL1       -0.2692
     15 H          62.8886   79.4502   12.5837 H       1  UNL1        0.1587
     16 O          61.2709   88.4723    9.2929 O.3     1  UNL1       -0.4684
     17 C          59.9325   88.1438    8.7007 C.3     1  UNL1        0.2526
     18 O          62.0777   89.4218   12.0219 O.3     1  UNL1       -0.4496
     19 C          65.5530   92.1188   12.9695 C.ar    1  UNL1        0.0767
     20 C          65.0438   91.1600   14.0045 C.ar    1  UNL1        0.0096
     21 C          63.8854   90.2610   13.6887 C.ar    1  UNL1        0.0386
     22 C          63.2361   90.3208   12.3378 C.ar    1  UNL1        0.1559
     23 C          63.7454   91.2796   11.3028 C.ar    1  UNL1        0.0923
     24 CL         63.0961   91.3395    9.9518 Cl      1  UNL1       -0.0791
     25 C          64.9038   92.1787   11.6187 C.ar    1  UNL1        0.0209
     26 C          66.7115   93.0179   13.2854 C.2     1  UNL1        0.3414
     27 O          66.5508   94.5067   13.1988 O.2     1  UNL1       -0.2449
     28 C          68.4541   92.4494   15.1266 C.3     1  UNL1        0.2560
     29 O          68.0306   92.4281   13.6878 O.3     1  UNL1       -0.4413
@<TRIPOS>BOND
     1    28    29    1
     2    29    26    1
     3    26    27    2
     4    26    19    1
     5    19    20   ar
     6    20    21   ar
     7    21    22   ar
     8    22    18    1
     9    18     1    1
    10     1     2   ar
    11     2     3   ar
    12     3     4   ar
    13     4     7    1
    14     7     8    2
    15     8     9    1
    16     9    10    1
    17    10    11    2
    18    10    12   am
    19    12    13   am
    20    13    14    2
    21     4     5   ar
    22     5     6   ar
    23     6    16    1
    24    16    17    1
    25    22    23   ar
    26    23    24    1
    27    23    25   ar
    28    25    19   ar
    29     6     1   ar
    30    13     8    1
    31    12    15    1
@<TRIPOS>MOLECULE
*****
 29 31 0 0 0
SMALL
GASTEIGER

@<TRIPOS>ATOM
      1 C          63.8063   88.1865   15.3312 C.ar    1  UNL1        0.1790
      2 C          64.2116   87.5410   14.0392 C.ar    1  UNL1        0.0406
      3 C          64.2235   86.0459   13.9191 C.ar    1  UNL1        0.0034
      4 C          63.8301   85.1962   15.0908 C.ar    1  UNL1        0.0039
      5 C          63.4247   85.8415   16.3828 C.ar    1  UNL1        0.0401
      6 C          63.4128   87.3367   16.5030 C.ar    1  UNL1        0.1730
      7 C          63.8420   83.7010   14.9706 C.2     1  UNL1        0.0113
      8 C          63.8347   83.0575   13.6157 C.2     1  UNL1        0.0873
      9 S          63.8160   83.7754   12.2987 S.3     1  UNL1       -0.0254
     10 C          63.8146   82.7446   11.2090 C.2     1  UNL1        0.2832
     11 O          63.7982   83.0204    9.7346 O.2     1  UNL1       -0.2622
     12 N          63.8326   81.3897   11.8524 N.am    1  UNL1       -0.2425
     13 C          63.8450   81.5831   13.3398 C.2     1  UNL1        0.2583
     14 O          63.8643   80.4934   14.3704 O.2     1  UNL1       -0.2692
     15 H          63.8356   80.5253   11.3812 H       1  UNL1        0.1587
     16 O          63.0075   87.9820   17.7950 O.3     1  UNL1       -0.4684
     17 C          62.6214   87.1321   18.9691 C.3     1  UNL1        0.2526
     18 O          63.7944   89.6816   15.4514 O.3     1  UNL1       -0.4496
     19 C          66.1320   92.1916   12.5385 C.ar    1  UNL1        0.0767
     20 C          66.7327   91.8248   13.8630 C.ar    1  UNL1        0.0096
     21 C          65.9535   90.9881   14.8340 C.ar    1  UNL1        0.0386
     22 C          64.5736   90.5183   14.4804 C.ar    1  UNL1        0.1559
     23 C          63.9729   90.8851   13.1559 C.ar    1  UNL1        0.0923
     24 CL         62.5929   90.4153   12.8022 Cl      1  UNL1       -0.0791
     25 C          64.7520   91.7218   12.1849 C.ar    1  UNL1        0.0209
     26 C          66.9111   93.0283   11.5675 C.2     1  UNL1        0.3414
     27 O          67.8844   92.3781   10.6295 O.2     1  UNL1       -0.2449
     28 C          65.7204   95.1208   10.5911 C.3     1  UNL1        0.2560
     29 O          66.7171   94.5153   11.5344 O.3     1  UNL1       -0.4413
@<TRIPOS>BOND
     1    28    29    1
     2    29    26    1
     3    26    27    2
     4    26    19    1
     5    19    20   ar
     6    20    21   ar
     7    21    22   ar
     8    22    18    1
     9    18     1    1
    10     1     2   ar
    11     2     3   ar
    12     3     4   ar
    13     4     7    1
    14     7     8    2
    15     8     9    1
    16     9    10    1
    17    10    11    2
    18    10    12   am
    19    12    13   am
    20    13    14    2
    21     4     5   ar
    22     5     6   ar
    23     6    16    1
    24    16    17    1
    25    22    23   ar
    26    23    24    1
    27    23    25   ar
    28    25    19   ar
    29     6     1   ar
    30    13     8    1
    31    12    15    1
@<TRIPOS>MOLECULE
*****
 29 31 0 0 0
SMALL
GASTEIGER

@<TRIPOS>ATOM
      1 C          63.6830   90.1211   13.9110 C.ar    1  UNL1        0.1790
      2 C          63.7992   89.0065   12.9139 C.ar    1  UNL1        0.0406
      3 C          63.9243   87.5881   13.3858 C.ar    1  UNL1        0.0034
      4 C          63.9331   87.2844   14.8547 C.ar    1  UNL1        0.0039
      5 C          63.8169   88.3990   15.8517 C.ar    1  UNL1        0.0401
      6 C          63.6919   89.8174   15.3799 C.ar    1  UNL1        0.1730
      7 C          64.0582   85.8660   15.3265 C.2     1  UNL1        0.0113
      8 C          63.8245   84.7342   14.3703 C.2     1  UNL1        0.0873
      9 S          63.4611   84.8653   12.9208 S.3     1  UNL1       -0.0254
     10 C          63.3251   83.4846   12.3504 C.2     1  UNL1        0.2832
     11 O          62.9719   83.1475   10.9321 O.2     1  UNL1       -0.2622
     12 N          63.6045   82.5003   13.4473 N.am    1  UNL1       -0.2425
     13 C          63.9131   83.2726   14.6956 C.2     1  UNL1        0.2583
     14 O          64.2510   82.6861   16.0342 O.2     1  UNL1       -0.2692
     15 H          63.5881   81.5195   13.3627 H       1  UNL1        0.1587
     16 O          63.5757   90.9320   16.3769 O.3     1  UNL1       -0.4684
     17 C          64.6595   91.9641   16.4778 C.3     1  UNL1        0.2526
     18 O          63.5579   91.5395   13.4391 O.3     1  UNL1       -0.4496
     19 C          66.6068   93.2440   10.6020 C.ar    1  UNL1        0.0767
     20 C          66.8156   93.3557   12.0832 C.ar    1  UNL1        0.0096
     21 C          65.7993   92.7876   13.0289 C.ar    1  UNL1        0.0386
     22 C          64.5742   92.1076   12.4934 C.ar    1  UNL1        0.1559
     23 C          64.3654   91.9959   11.0123 C.ar    1  UNL1        0.0923
     24 CL         63.1403   91.3159   10.4768 Cl      1  UNL1       -0.0791
     25 C          65.3817   92.5640   10.0666 C.ar    1  UNL1        0.0209
     26 C          67.6231   93.8122    9.6563 C.2     1  UNL1        0.3414
     27 O          69.0660   93.4228    9.7835 O.2     1  UNL1       -0.2449
     28 C          67.1966   96.2455    8.8519 C.3     1  UNL1        0.2560
     29 O          67.1964   94.7697    8.5835 O.3     1  UNL1       -0.4413
@<TRIPOS>BOND
     1    28    29    1
     2    29    26    1
     3    26    27    2
     4    26    19    1
     5    19    20   ar
     6    20    21   ar
     7    21    22   ar
     8    22    18    1
     9    18     1    1
    10     1     2   ar
    11     2     3   ar
    12     3     4   ar
    13     4     7    1
    14     7     8    2
    15     8     9    1
    16     9    10    1
    17    10    11    2
    18    10    12   am
    19    12    13   am
    20    13    14    2
    21     4     5   ar
    22     5     6   ar
    23     6    16    1
    24    16    17    1
    25    22    23   ar
    26    23    24    1
    27    23    25   ar
    28    25    19   ar
    29     6     1   ar
    30    13     8    1
    31    12    15    1
