@<TRIPOS>MOLECULE
*****
 44 48 0 0 0
SMALL
GASTEIGER

@<TRIPOS>ATOM
      1 C          61.6374   87.3219   10.0736 C.ar    1  UNL1        0.0611
      2 C          61.4620   85.8327   10.0331 C.ar    1  UNL1        0.0112
      3 C          62.0030   84.9833   11.1448 C.ar    1  UNL1        0.0208
      4 C          62.7194   85.6232   12.2970 C.ar    1  UNL1        0.1218
      5 N          62.8948   87.1123   12.3374 N.ar    1  UNL1       -0.2421
      6 C          62.3537   87.9617   11.2258 C.ar    1  UNL1        0.1068
      7 C          63.2605   84.7738   13.4086 C.3     1  UNL1        0.3254
      8 F          61.7755   84.5780   13.4920 F       1  UNL1       -0.1949
      9 F          64.6559   85.1873   13.0455 F       1  UNL1       -0.1949
     10 C          63.8015   83.9244   14.5203 C.3     1  UNL1        0.1933
     11 O          64.3425   83.0750   15.6320 O.3     1  UNL1       -0.3755
     12 H          64.8568   83.6281   16.2406 H       1  UNL1        0.2110
     13 C          63.1492   82.7168   13.9151 C.ar    1  UNL1        0.0389
     14 C          61.8967   82.1576   14.5219 C.ar    1  UNL1        0.0301
     15 C          61.2444   80.9500   13.9167 C.ar    1  UNL1        0.1401
     16 F          59.9918   80.3908   14.5237 F       1  UNL1       -0.2042
     17 C          61.8447   80.3016   12.7046 C.ar    1  UNL1        0.0319
     18 C          63.0972   80.8608   12.0978 C.ar    1  UNL1        0.0317
     19 C          63.7495   82.0684   12.7030 C.ar    1  UNL1        0.1387
     20 F          65.0021   82.6276   12.0960 F       1  UNL1       -0.2044
     21 C          64.4538   85.1319   15.1255 C.3     1  UNL1        0.1679
     22 N          63.6352   86.1100   15.9151 N.ar    1  UNL1       -0.2078
     23 C          62.6382   85.7666   16.9817 C.ar    1  UNL1        0.2216
     24 N          62.0568   87.0476   17.5025 N.ar    1  UNL1       -0.1048
     25 N          62.6945   88.1826   16.7577 N.ar    1  UNL1       -0.0226
     26 N          63.6701   87.6032   15.7766 N.ar    1  UNL1       -0.0428
     27 C          60.5553   89.0207    7.8503 C.1     1  UNL1       -0.0597
     28 C          61.0963   88.1713    8.9619 C.1     1  UNL1       -0.0582
     29 C          58.9322   91.5689    4.5153 C.ar    1  UNL1        0.1391
     30 C          57.9921   90.9024    5.4755 C.ar    1  UNL1        0.0375
     31 C          58.5331   90.0530    6.5872 C.ar    1  UNL1        0.0114
     32 C          60.0143   89.8701    6.7386 C.ar    1  UNL1        0.0422
     33 C          60.9543   90.5366    5.7784 C.ar    1  UNL1        0.0114
     34 C          60.4133   91.3860    4.6667 C.ar    1  UNL1        0.0375
     35 O          58.3912   92.4183    3.4036 O.3     1  UNL1       -0.4706
     36 C          59.0792   92.4368    2.0709 C.3     1  UNL1        0.2320
     37 C          62.7314   94.9936    1.4594 C.ar    1  UNL1        0.0684
     38 C          62.8380   93.5001    1.3704 C.ar    1  UNL1        0.0101
     39 C          61.6206   92.6478    1.5743 C.ar    1  UNL1       -0.0000
     40 C          60.2966   93.2891    1.8670 C.ar    1  UNL1        0.0212
     41 C          60.1900   94.7826    1.9560 C.ar    1  UNL1       -0.0000
     42 C          61.4074   95.6349    1.7522 C.ar    1  UNL1        0.0101
     43 N          65.1662   96.6982    1.0517 N.1     1  UNL1       -0.1908
     44 C          63.9488   95.8459    1.2556 C.1     1  UNL1        0.1004
@<TRIPOS>BOND
     1    43    44    3
     2    44    37    1
     3    37    38   ar
     4    38    39   ar
     5    39    40   ar
     6    40    36    1
     7    36    35    1
     8    35    29    1
     9    29    30   ar
    10    30    31   ar
    11    31    32   ar
    12    32    27    1
    13    27    28    3
    14    28     1    1
    15     1     2   ar
    16     2     3   ar
    17     3     4   ar
    18     4     7    1
    19     7     8    1
    20     7     9    1
    21     7    10    1
    22    10    11    1
    23    10    21    1
    24    21    22    1
    25    22    23   ar
    26    23    24   ar
    27    24    25   ar
    28    25    26   ar
    29    10    13    1
    30    13    14   ar
    31    14    15   ar
    32    15    16    1
    33    15    17   ar
    34    17    18   ar
    35    18    19   ar
    36    19    20    1
    37     4     5   ar
    38     5     6   ar
    39    32    33   ar
    40    33    34   ar
    41    40    41   ar
    42    41    42   ar
    43    42    37   ar
    44    34    29   ar
    45     6     1   ar
    46    26    22   ar
    47    19    13   ar
    48    11    12    1
@<TRIPOS>MOLECULE
*****
 44 48 0 0 0
SMALL
GASTEIGER

@<TRIPOS>ATOM
      1 C          61.6978   87.2647   10.1255 C.ar    1  UNL1        0.0611
      2 C          61.5255   85.7750   10.0909 C.ar    1  UNL1        0.0112
      3 C          62.0556   84.9325   11.2130 C.ar    1  UNL1        0.0208
      4 C          62.7580   85.5797   12.3697 C.ar    1  UNL1        0.1218
      5 N          62.9303   87.0693   12.4043 N.ar    1  UNL1       -0.2421
      6 C          62.4001   87.9118   11.2821 C.ar    1  UNL1        0.1068
      7 C          63.2881   84.7371   13.4918 C.3     1  UNL1        0.3254
      8 F          61.8051   84.5168   13.5417 F       1  UNL1       -0.1949
      9 F          64.6842   85.1743   13.1606 F       1  UNL1       -0.1949
     10 C          63.8182   83.8946   14.6139 C.3     1  UNL1        0.1933
     11 O          64.3483   83.0521   15.7361 O.3     1  UNL1       -0.3755
     12 H          64.8556   83.6092   16.3469 H       1  UNL1        0.2110
     13 C          63.1736   82.6830   14.0087 C.ar    1  UNL1        0.0389
     14 C          61.8906   82.1532   14.5772 C.ar    1  UNL1        0.0301
     15 C          61.2459   80.9415   13.9719 C.ar    1  UNL1        0.1401
     16 F          59.9628   80.4117   14.5404 F       1  UNL1       -0.2042
     17 C          61.8843   80.2596   12.7983 C.ar    1  UNL1        0.0319
     18 C          63.1673   80.7894   12.2299 C.ar    1  UNL1        0.0317
     19 C          63.8119   82.0011   12.8351 C.ar    1  UNL1        0.1387
     20 F          65.0950   82.5308   12.2666 F       1  UNL1       -0.2044
     21 C          64.4629   85.1063   15.2192 C.3     1  UNL1        0.1679
     22 N          63.6320   86.0972   15.9792 N.ar    1  UNL1       -0.2078
     23 C          62.6035   85.7703   17.0209 C.ar    1  UNL1        0.2216
     24 N          62.0196   87.0601   17.5166 N.ar    1  UNL1       -0.1048
     25 N          62.6872   88.1841   16.7812 N.ar    1  UNL1       -0.0226
     26 N          63.6838   87.5890   15.8310 N.ar    1  UNL1       -0.0428
     27 C          60.6375   88.9498    7.8813 C.1     1  UNL1       -0.0597
     28 C          61.1676   88.1072    9.0034 C.1     1  UNL1       -0.0582
     29 C          59.0472   91.4773    4.5150 C.ar    1  UNL1        0.1391
     30 C          60.5273   91.3120    4.6942 C.ar    1  UNL1        0.0375
     31 C          61.0574   90.4695    5.8163 C.ar    1  UNL1        0.0114
     32 C          60.1074   89.7923    6.7592 C.ar    1  UNL1        0.0422
     33 C          58.6274   89.9576    6.5800 C.ar    1  UNL1        0.0114
     34 C          58.0973   90.8002    5.4578 C.ar    1  UNL1        0.0375
     35 O          58.5171   92.3199    3.3929 O.3     1  UNL1       -0.4706
     36 C          59.3151   93.4854    2.8884 C.3     1  UNL1        0.2320
     37 C          61.6537   93.1234   -0.9391 C.ar    1  UNL1        0.0684
     38 C          62.3693   93.3619    0.3573 C.ar    1  UNL1        0.0101
     39 C          61.5898   93.4826    1.6332 C.ar    1  UNL1       -0.0000
     40 C          60.0946   93.3648    1.6126 C.ar    1  UNL1        0.0212
     41 C          59.3790   93.1262    0.3161 C.ar    1  UNL1       -0.0000
     42 C          60.1585   93.0055   -0.9597 C.ar    1  UNL1        0.0101
     43 N          63.2127   92.8820   -3.4908 N.1     1  UNL1       -0.1908
     44 C          62.4332   93.0027   -2.2150 C.1     1  UNL1        0.1004
@<TRIPOS>BOND
     1    43    44    3
     2    44    37    1
     3    37    38   ar
     4    38    39   ar
     5    39    40   ar
     6    40    36    1
     7    36    35    1
     8    35    29    1
     9    29    30   ar
    10    30    31   ar
    11    31    32   ar
    12    32    27    1
    13    27    28    3
    14    28     1    1
    15     1     2   ar
    16     2     3   ar
    17     3     4   ar
    18     4     7    1
    19     7     8    1
    20     7     9    1
    21     7    10    1
    22    10    11    1
    23    10    21    1
    24    21    22    1
    25    22    23   ar
    26    23    24   ar
    27    24    25   ar
    28    25    26   ar
    29    10    13    1
    30    13    14   ar
    31    14    15   ar
    32    15    16    1
    33    15    17   ar
    34    17    18   ar
    35    18    19   ar
    36    19    20    1
    37     4     5   ar
    38     5     6   ar
    39    32    33   ar
    40    33    34   ar
    41    40    41   ar
    42    41    42   ar
    43    42    37   ar
    44    34    29   ar
    45     6     1   ar
    46    26    22   ar
    47    19    13   ar
    48    11    12    1
@<TRIPOS>MOLECULE
*****
 44 48 0 0 0
SMALL
GASTEIGER

@<TRIPOS>ATOM
      1 C          61.6883   87.3843   10.0058 C.ar    1  UNL1        0.0611
      2 C          61.5326   85.8930    9.9607 C.ar    1  UNL1        0.0112
      3 C          62.0519   85.0504   11.0878 C.ar    1  UNL1        0.0208
      4 C          62.7269   85.6991   12.2599 C.ar    1  UNL1        0.1218
      5 N          62.8826   87.1903   12.3049 N.ar    1  UNL1       -0.2421
      6 C          62.3632   88.0329   11.1778 C.ar    1  UNL1        0.1068
      7 C          63.2462   84.8564   13.3870 C.3     1  UNL1        0.3254
      8 F          61.7616   84.6460   13.4306 F       1  UNL1       -0.1949
      9 F          64.6467   85.2835   13.0610 F       1  UNL1       -0.1949
     10 C          63.7655   84.0138   14.5141 C.3     1  UNL1        0.1933
     11 O          64.2849   83.1712   15.6412 O.3     1  UNL1       -0.3755
     12 H          64.7854   83.7285   16.2574 H       1  UNL1        0.2110
     13 C          63.1281   82.8019   13.9018 C.ar    1  UNL1        0.0389
     14 C          61.8965   82.2093   14.5196 C.ar    1  UNL1        0.0301
     15 C          61.2590   80.9974   13.9073 C.ar    1  UNL1        0.1401
     16 F          60.0273   80.4047   14.5252 F       1  UNL1       -0.2042
     17 C          61.8532   80.3781   12.6771 C.ar    1  UNL1        0.0319
     18 C          63.0849   80.9707   12.0592 C.ar    1  UNL1        0.0317
     19 C          63.7223   82.1826   12.6716 C.ar    1  UNL1        0.1387
     20 F          64.9540   82.7753   12.0537 F       1  UNL1       -0.2044
     21 C          64.4030   85.2257   15.1264 C.3     1  UNL1        0.1679
     22 N          63.5772   86.1768   15.9410 N.ar    1  UNL1       -0.2078
     23 C          62.6142   85.8005   17.0276 C.ar    1  UNL1        0.2216
     24 N          62.0113   87.0623   17.5702 N.ar    1  UNL1       -0.1048
     25 N          62.6017   88.2185   16.8188 N.ar    1  UNL1       -0.0226
     26 N          63.5695   87.6713   15.8119 N.ar    1  UNL1       -0.0428
     27 C          60.6497   89.0695    7.7516 C.1     1  UNL1       -0.0597
     28 C          61.1690   88.2269    8.8787 C.1     1  UNL1       -0.0582
     29 C          59.0917   91.5974    4.3704 C.ar    1  UNL1        0.1391
     30 C          58.1326   90.9094    5.2961 C.ar    1  UNL1        0.0375
     31 C          58.6519   90.0668    6.4232 C.ar    1  UNL1        0.0114
     32 C          60.1304   89.9121    6.6245 C.ar    1  UNL1        0.0422
     33 C          61.0894   90.6001    5.6988 C.ar    1  UNL1        0.0114
     34 C          60.5700   91.4427    4.5717 C.ar    1  UNL1        0.0375
     35 O          58.5724   92.4400    3.2433 O.3     1  UNL1       -0.4706
     36 C          59.4821   92.8268    2.1151 C.3     1  UNL1        0.2320
     37 C          57.7652   94.5552   -1.6684 C.ar    1  UNL1        0.0684
     38 C          58.5781   95.4192   -0.7505 C.ar    1  UNL1        0.0101
     39 C          59.1504   94.8431    0.5107 C.ar    1  UNL1       -0.0000
     40 C          58.9098   93.4029    0.8540 C.ar    1  UNL1        0.0212
     41 C          58.0969   92.5389   -0.0639 C.ar    1  UNL1       -0.0000
     42 C          57.5246   93.1150   -1.3251 C.ar    1  UNL1        0.0101
     43 N          56.6207   95.7074   -4.1907 N.1     1  UNL1       -0.1908
     44 C          57.1930   95.1313   -2.9295 C.1     1  UNL1        0.1004
@<TRIPOS>BOND
     1    43    44    3
     2    44    37    1
     3    37    38   ar
     4    38    39   ar
     5    39    40   ar
     6    40    36    1
     7    36    35    1
     8    35    29    1
     9    29    30   ar
    10    30    31   ar
    11    31    32   ar
    12    32    27    1
    13    27    28    3
    14    28     1    1
    15     1     2   ar
    16     2     3   ar
    17     3     4   ar
    18     4     7    1
    19     7     8    1
    20     7     9    1
    21     7    10    1
    22    10    11    1
    23    10    21    1
    24    21    22    1
    25    22    23   ar
    26    23    24   ar
    27    24    25   ar
    28    25    26   ar
    29    10    13    1
    30    13    14   ar
    31    14    15   ar
    32    15    16    1
    33    15    17   ar
    34    17    18   ar
    35    18    19   ar
    36    19    20    1
    37     4     5   ar
    38     5     6   ar
    39    32    33   ar
    40    33    34   ar
    41    40    41   ar
    42    41    42   ar
    43    42    37   ar
    44    34    29   ar
    45     6     1   ar
    46    26    22   ar
    47    19    13   ar
    48    11    12    1
@<TRIPOS>MOLECULE
*****
 44 48 0 0 0
SMALL
GASTEIGER

@<TRIPOS>ATOM
      1 C          61.5990   87.9144    9.4871 C.ar    1  UNL1        0.0611
      2 C          62.2545   88.5963   10.6515 C.ar    1  UNL1        0.0112
      3 C          62.7883   87.7832   11.7933 C.ar    1  UNL1        0.0208
      4 C          62.6667   86.2882   11.7709 C.ar    1  UNL1        0.1218
      5 N          62.0113   85.6065   10.6066 N.ar    1  UNL1       -0.2421
      6 C          61.4775   86.4196    9.4647 C.ar    1  UNL1        0.1068
      7 C          63.2005   85.4751   12.9128 C.3     1  UNL1        0.3254
      8 F          62.0373   84.6732   12.4087 F       1  UNL1       -0.1949
      9 F          64.2662   86.5043   13.1475 F       1  UNL1       -0.1949
     10 C          63.7344   84.6620   14.0546 C.3     1  UNL1        0.1933
     11 O          64.2682   83.8489   15.1965 O.3     1  UNL1       -0.3755
     12 H          64.6083   84.4420   15.8846 H       1  UNL1        0.2110
     13 C          63.3653   83.4017   13.3297 C.ar    1  UNL1        0.0389
     14 C          64.0003   83.0829   12.0088 C.ar    1  UNL1        0.0301
     15 C          63.6312   81.8226   11.2839 C.ar    1  UNL1        0.1401
     16 F          64.2663   81.5038    9.9628 F       1  UNL1       -0.2042
     17 C          62.6271   80.8811   11.8800 C.ar    1  UNL1        0.0319
     18 C          61.9921   81.2000   13.2009 C.ar    1  UNL1        0.0317
     19 C          62.3612   82.4602   13.9258 C.ar    1  UNL1        0.1387
     20 F          61.7261   82.7790   15.2469 F       1  UNL1       -0.2044
     21 C          64.1035   85.9223   14.7795 C.3     1  UNL1        0.1679
     22 N          63.3624   86.3171   16.0224 N.ar    1  UNL1       -0.2078
     23 C          63.4314   87.6515   16.7037 C.ar    1  UNL1        0.2216
     24 N          62.5338   87.6059   17.9047 N.ar    1  UNL1       -0.1048
     25 N          61.9100   86.2431   17.9656 N.ar    1  UNL1       -0.0226
     26 N          62.4220   85.4466   16.8023 N.ar    1  UNL1       -0.0428
     27 C          60.5314   89.5407    7.2034 C.1     1  UNL1       -0.0597
     28 C          61.0652   88.7276    8.3453 C.1     1  UNL1       -0.0582
     29 C          58.9299   91.9800    3.7778 C.ar    1  UNL1        0.1391
     30 C          60.4082   91.7715    3.9234 C.ar    1  UNL1        0.0375
     31 C          60.9421   90.9584    5.0653 C.ar    1  UNL1        0.0114
     32 C          59.9975   90.3538    6.0615 C.ar    1  UNL1        0.0422
     33 C          58.5193   90.5623    5.9159 C.ar    1  UNL1        0.0114
     34 C          57.9855   91.3754    4.7740 C.ar    1  UNL1        0.0375
     35 O          58.3961   92.7932    2.6359 O.3     1  UNL1       -0.4706
     36 C          59.3230   93.2716    1.5581 C.3     1  UNL1        0.2320
     37 C          58.1603   92.8346   -2.7671 C.ar    1  UNL1        0.0684
     38 C          57.1208   92.7017   -1.6939 C.ar    1  UNL1        0.0101
     39 C          57.5084   92.8473   -0.2522 C.ar    1  UNL1       -0.0000
     40 C          58.9354   93.1260    0.1164 C.ar    1  UNL1        0.0212
     41 C          59.9749   93.2589   -0.9568 C.ar    1  UNL1       -0.0000
     42 C          59.5873   93.1133   -2.3986 C.ar    1  UNL1        0.0101
     43 N          57.3851   92.5433   -5.6505 N.1     1  UNL1       -0.1908
     44 C          57.7727   92.6890   -4.2088 C.1     1  UNL1        0.1004
@<TRIPOS>BOND
     1    43    44    3
     2    44    37    1
     3    37    38   ar
     4    38    39   ar
     5    39    40   ar
     6    40    36    1
     7    36    35    1
     8    35    29    1
     9    29    30   ar
    10    30    31   ar
    11    31    32   ar
    12    32    27    1
    13    27    28    3
    14    28     1    1
    15     1     2   ar
    16     2     3   ar
    17     3     4   ar
    18     4     7    1
    19     7     8    1
    20     7     9    1
    21     7    10    1
    22    10    11    1
    23    10    21    1
    24    21    22    1
    25    22    23   ar
    26    23    24   ar
    27    24    25   ar
    28    25    26   ar
    29    10    13    1
    30    13    14   ar
    31    14    15   ar
    32    15    16    1
    33    15    17   ar
    34    17    18   ar
    35    18    19   ar
    36    19    20    1
    37     4     5   ar
    38     5     6   ar
    39    32    33   ar
    40    33    34   ar
    41    40    41   ar
    42    41    42   ar
    43    42    37   ar
    44    34    29   ar
    45     6     1   ar
    46    26    22   ar
    47    19    13   ar
    48    11    12    1
@<TRIPOS>MOLECULE
*****
 44 48 0 0 0
SMALL
GASTEIGER

@<TRIPOS>ATOM
      1 C          61.4433   87.5238    9.3718 C.ar    1  UNL1        0.0611
      2 C          61.8961   86.1290    9.0559 C.ar    1  UNL1        0.0112
      3 C          62.3896   85.2340   10.1539 C.ar    1  UNL1        0.0208
      4 C          62.4301   85.7337   11.5676 C.ar    1  UNL1        0.1218
      5 N          61.9773   87.1284   11.8834 N.ar    1  UNL1       -0.2421
      6 C          61.4839   88.0234   10.7855 C.ar    1  UNL1        0.1068
      7 C          62.9235   84.8387   12.6656 C.3     1  UNL1        0.3254
      8 F          61.6518   85.4167   13.2123 F       1  UNL1       -0.1949
      9 F          64.1111   84.4662   11.8283 F       1  UNL1       -0.1949
     10 C          63.4170   83.9436   13.7635 C.3     1  UNL1        0.1933
     11 O          63.9104   83.0486   14.8614 O.3     1  UNL1       -0.3755
     12 H          63.9881   82.1409   14.5283 H       1  UNL1        0.2110
     13 C          63.4639   85.1159   14.6981 C.ar    1  UNL1        0.0389
     14 C          64.2054   86.3592   14.3051 C.ar    1  UNL1        0.0301
     15 C          64.2523   87.5315   15.2397 C.ar    1  UNL1        0.1401
     16 F          64.9939   88.7748   14.8466 F       1  UNL1       -0.2042
     17 C          63.5578   87.4606   16.5673 C.ar    1  UNL1        0.0319
     18 C          62.8163   86.2173   16.9603 C.ar    1  UNL1        0.0317
     19 C          62.7694   85.0450   16.0257 C.ar    1  UNL1        0.1387
     20 F          62.0278   83.8017   16.4187 F       1  UNL1       -0.2044
     21 C          63.3700   82.7713   12.8289 C.3     1  UNL1        0.1679
     22 N          62.5403   81.5702   13.1735 N.ar    1  UNL1       -0.2078
     23 C          62.7373   80.1810   12.6434 C.ar    1  UNL1        0.2216
     24 N          61.6866   79.2995   13.2511 N.ar    1  UNL1       -0.1048
     25 N          60.8401   80.1441   14.1567 N.ar    1  UNL1       -0.0226
     26 N          61.3677   81.5474   14.1088 N.ar    1  UNL1       -0.0428
     27 C          60.4564   89.3138    7.1759 C.1     1  UNL1       -0.0597
     28 C          60.9499   88.4188    8.2739 C.1     1  UNL1       -0.0582
     29 C          58.9762   91.9989    3.8821 C.ar    1  UNL1        0.1391
     30 C          60.4458   91.7406    4.0357 C.ar    1  UNL1        0.0375
     31 C          60.9392   90.8456    5.1337 C.ar    1  UNL1        0.0114
     32 C          59.9630   90.2089    6.0780 C.ar    1  UNL1        0.0422
     33 C          58.4935   90.4672    5.9243 C.ar    1  UNL1        0.0114
     34 C          58.0001   91.3622    4.8264 C.ar    1  UNL1        0.0375
     35 O          58.4828   92.8940    2.7842 O.3     1  UNL1       -0.4706
     36 C          59.0465   92.7640    1.4003 C.3     1  UNL1        0.2320
     37 C          63.0264   94.6155    0.4090 C.ar    1  UNL1        0.0684
     38 C          62.0585   95.3459    1.2919 C.ar    1  UNL1        0.0101
     39 C          60.7319   94.7288    1.6223 C.ar    1  UNL1       -0.0000
     40 C          60.3731   93.3812    1.0698 C.ar    1  UNL1        0.0212
     41 C          61.3410   92.6508    0.1869 C.ar    1  UNL1       -0.0000
     42 C          62.6677   93.2679   -0.1435 C.ar    1  UNL1        0.0101
     43 N          65.6796   95.8498   -0.2519 N.1     1  UNL1       -0.1908
     44 C          64.3530   95.2327    0.0785 C.1     1  UNL1        0.1004
@<TRIPOS>BOND
     1    43    44    3
     2    44    37    1
     3    37    38   ar
     4    38    39   ar
     5    39    40   ar
     6    40    36    1
     7    36    35    1
     8    35    29    1
     9    29    30   ar
    10    30    31   ar
    11    31    32   ar
    12    32    27    1
    13    27    28    3
    14    28     1    1
    15     1     2   ar
    16     2     3   ar
    17     3     4   ar
    18     4     7    1
    19     7     8    1
    20     7     9    1
    21     7    10    1
    22    10    11    1
    23    10    21    1
    24    21    22    1
    25    22    23   ar
    26    23    24   ar
    27    24    25   ar
    28    25    26   ar
    29    10    13    1
    30    13    14   ar
    31    14    15   ar
    32    15    16    1
    33    15    17   ar
    34    17    18   ar
    35    18    19   ar
    36    19    20    1
    37     4     5   ar
    38     5     6   ar
    39    32    33   ar
    40    33    34   ar
    41    40    41   ar
    42    41    42   ar
    43    42    37   ar
    44    34    29   ar
    45     6     1   ar
    46    26    22   ar
    47    19    13   ar
    48    11    12    1
@<TRIPOS>MOLECULE
*****
 44 48 0 0 0
SMALL
GASTEIGER

@<TRIPOS>ATOM
      1 C          61.4821   87.5814    9.3697 C.ar    1  UNL1        0.0611
      2 C          61.8798   86.1631    9.0864 C.ar    1  UNL1        0.0112
      3 C          62.3781   85.2876   10.1978 C.ar    1  UNL1        0.0208
      4 C          62.4787   85.8306   11.5926 C.ar    1  UNL1        0.1218
      5 N          62.0810   87.2488   11.8758 N.ar    1  UNL1       -0.2421
      6 C          61.5827   88.1243   10.7644 C.ar    1  UNL1        0.1068
      7 C          62.9769   84.9551   12.7040 C.3     1  UNL1        0.3254
      8 F          61.6947   85.5232   13.2365 F       1  UNL1       -0.1949
      9 F          64.1740   84.5879   11.8781 F       1  UNL1       -0.1949
     10 C          63.4752   84.0797   13.8155 C.3     1  UNL1        0.1933
     11 O          63.9735   83.2042   14.9269 O.3     1  UNL1       -0.3755
     12 H          64.0752   82.2958   14.6022 H       1  UNL1        0.2110
     13 C          63.4846   85.2600   14.7410 C.ar    1  UNL1        0.0389
     14 C          64.2036   86.5162   14.3473 C.ar    1  UNL1        0.0301
     15 C          64.2130   87.6965   15.2728 C.ar    1  UNL1        0.1401
     16 F          64.9321   88.9527   14.8790 F       1  UNL1       -0.2042
     17 C          63.5033   87.6208   16.5921 C.ar    1  UNL1        0.0319
     18 C          62.7843   86.3647   16.9859 C.ar    1  UNL1        0.0317
     19 C          62.7749   85.1843   16.0603 C.ar    1  UNL1        0.1387
     20 F          62.0558   83.9281   16.4541 F       1  UNL1       -0.2044
     21 C          63.4658   82.8993   12.8899 C.3     1  UNL1        0.1679
     22 N          62.6288   81.6978   13.2151 N.ar    1  UNL1       -0.2078
     23 C          62.7836   80.3288   12.6223 C.ar    1  UNL1        0.2216
     24 N          61.7403   79.4393   13.2311 N.ar    1  UNL1       -0.1048
     25 N          60.9408   80.2587   14.2002 N.ar    1  UNL1       -0.0226
     26 N          61.4898   81.6545   14.1904 N.ar    1  UNL1       -0.0428
     27 C          60.4855   89.3323    7.1468 C.1     1  UNL1       -0.0597
     28 C          60.9838   88.4569    8.2583 C.1     1  UNL1       -0.0582
     29 C          58.9907   91.9587    3.8125 C.ar    1  UNL1        0.1391
     30 C          60.4599   91.6919    3.9559 C.ar    1  UNL1        0.0375
     31 C          60.9581   90.8165    5.0674 C.ar    1  UNL1        0.0114
     32 C          59.9873   90.2078    6.0354 C.ar    1  UNL1        0.0422
     33 C          58.5182   90.4745    5.8919 C.ar    1  UNL1        0.0114
     34 C          58.0199   91.3500    4.7804 C.ar    1  UNL1        0.0375
     35 O          58.4924   92.8341    2.7010 O.3     1  UNL1       -0.4706
     36 C          59.4244   93.2577    1.6047 C.3     1  UNL1        0.2320
     37 C          58.1799   92.8262   -2.6982 C.ar    1  UNL1        0.0684
     38 C          59.6137   93.1042   -2.3565 C.ar    1  UNL1        0.0101
     39 C          60.0285   93.2481   -0.9221 C.ar    1  UNL1       -0.0000
     40 C          59.0095   93.1139    0.1704 C.ar    1  UNL1        0.0212
     41 C          57.5757   92.8358   -0.1714 C.ar    1  UNL1       -0.0000
     42 C          57.1609   92.6920   -1.6057 C.ar    1  UNL1        0.0101
     43 N          57.3503   92.5385   -5.5669 N.1     1  UNL1       -0.1908
     44 C          57.7651   92.6823   -4.1326 C.1     1  UNL1        0.1004
@<TRIPOS>BOND
     1    43    44    3
     2    44    37    1
     3    37    38   ar
     4    38    39   ar
     5    39    40   ar
     6    40    36    1
     7    36    35    1
     8    35    29    1
     9    29    30   ar
    10    30    31   ar
    11    31    32   ar
    12    32    27    1
    13    27    28    3
    14    28     1    1
    15     1     2   ar
    16     2     3   ar
    17     3     4   ar
    18     4     7    1
    19     7     8    1
    20     7     9    1
    21     7    10    1
    22    10    11    1
    23    10    21    1
    24    21    22    1
    25    22    23   ar
    26    23    24   ar
    27    24    25   ar
    28    25    26   ar
    29    10    13    1
    30    13    14   ar
    31    14    15   ar
    32    15    16    1
    33    15    17   ar
    34    17    18   ar
    35    18    19   ar
    36    19    20    1
    37     4     5   ar
    38     5     6   ar
    39    32    33   ar
    40    33    34   ar
    41    40    41   ar
    42    41    42   ar
    43    42    37   ar
    44    34    29   ar
    45     6     1   ar
    46    26    22   ar
    47    19    13   ar
    48    11    12    1
@<TRIPOS>MOLECULE
*****
 44 48 0 0 0
SMALL
GASTEIGER

@<TRIPOS>ATOM
      1 C          61.6219   87.7217    9.6382 C.ar    1  UNL1        0.0611
      2 C          61.8340   86.2487    9.4504 C.ar    1  UNL1        0.0112
      3 C          62.3665   85.4177   10.5800 C.ar    1  UNL1        0.0208
      4 C          62.6869   86.0598   11.8973 C.ar    1  UNL1        0.1218
      5 N          62.4747   87.5327   12.0850 N.ar    1  UNL1       -0.2421
      6 C          61.9422   88.3637   10.9554 C.ar    1  UNL1        0.1068
      7 C          63.2194   85.2288   13.0269 C.3     1  UNL1        0.3254
      8 F          64.3262   86.1988   12.7366 F       1  UNL1       -0.1949
      9 F          61.9459   84.4364   13.0443 F       1  UNL1       -0.1949
     10 C          63.7519   84.3978   14.1564 C.3     1  UNL1        0.1933
     11 O          64.2844   83.5668   15.2860 O.3     1  UNL1       -0.3755
     12 H          64.6747   84.1470   15.9582 H       1  UNL1        0.2110
     13 C          63.2998   83.1523   13.4533 C.ar    1  UNL1        0.0389
     14 C          63.8593   82.8072   12.1050 C.ar    1  UNL1        0.0301
     15 C          63.4072   81.5617   11.4018 C.ar    1  UNL1        0.1401
     16 F          63.9667   81.2166   10.0535 F       1  UNL1       -0.2042
     17 C          62.3958   80.6613   12.0469 C.ar    1  UNL1        0.0319
     18 C          61.8363   81.0065   13.3952 C.ar    1  UNL1        0.0317
     19 C          62.2883   82.2519   14.0984 C.ar    1  UNL1        0.1387
     20 F          61.7288   82.5970   15.4467 F       1  UNL1       -0.2044
     21 C          64.2039   85.6433   14.8596 C.3     1  UNL1        0.1679
     22 N          63.3854   86.2103   15.9814 N.ar    1  UNL1       -0.2078
     23 C          63.4371   87.6224   16.4843 C.ar    1  UNL1        0.2216
     24 N          62.4551   87.7496   17.6110 N.ar    1  UNL1       -0.1048
     25 N          61.7964   86.4159   17.8045 N.ar    1  UNL1       -0.0226
     26 N          62.3713   85.4646   16.7974 N.ar    1  UNL1       -0.0428
     27 C          60.5569   89.3837    7.3790 C.1     1  UNL1       -0.0597
     28 C          61.0894   88.5527    8.5086 C.1     1  UNL1       -0.0582
     29 C          58.9594   91.8766    3.9903 C.ar    1  UNL1        0.1391
     30 C          58.0129   91.2441    4.9672 C.ar    1  UNL1        0.0375
     31 C          58.5454   90.4132    6.0968 C.ar    1  UNL1        0.0114
     32 C          60.0244   90.2147    6.2495 C.ar    1  UNL1        0.0422
     33 C          60.9708   90.8471    5.2726 C.ar    1  UNL1        0.0114
     34 C          60.4383   91.6781    4.1431 C.ar    1  UNL1        0.0375
     35 O          58.4269   92.7076    2.8608 O.3     1  UNL1       -0.4706
     36 C          59.2438   93.8400    2.3128 C.3     1  UNL1        0.2320
     37 C          61.6947   93.2486   -1.4146 C.ar    1  UNL1        0.0684
     38 C          62.3751   93.5006   -0.1017 C.ar    1  UNL1        0.0101
     39 C          61.5581   93.6978    1.1407 C.ar    1  UNL1       -0.0000
     40 C          60.0608   93.6429    1.0703 C.ar    1  UNL1        0.0212
     41 C          59.3804   93.3909   -0.2425 C.ar    1  UNL1       -0.0000
     42 C          60.1974   93.1937   -1.4850 C.ar    1  UNL1        0.0101
     43 N          63.3287   92.8544   -3.8995 N.1     1  UNL1       -0.1908
     44 C          62.5117   93.0515   -2.6570 C.1     1  UNL1        0.1004
@<TRIPOS>BOND
     1    43    44    3
     2    44    37    1
     3    37    38   ar
     4    38    39   ar
     5    39    40   ar
     6    40    36    1
     7    36    35    1
     8    35    29    1
     9    29    30   ar
    10    30    31   ar
    11    31    32   ar
    12    32    27    1
    13    27    28    3
    14    28     1    1
    15     1     2   ar
    16     2     3   ar
    17     3     4   ar
    18     4     7    1
    19     7     8    1
    20     7     9    1
    21     7    10    1
    22    10    11    1
    23    10    21    1
    24    21    22    1
    25    22    23   ar
    26    23    24   ar
    27    24    25   ar
    28    25    26   ar
    29    10    13    1
    30    13    14   ar
    31    14    15   ar
    32    15    16    1
    33    15    17   ar
    34    17    18   ar
    35    18    19   ar
    36    19    20    1
    37     4     5   ar
    38     5     6   ar
    39    32    33   ar
    40    33    34   ar
    41    40    41   ar
    42    41    42   ar
    43    42    37   ar
    44    34    29   ar
    45     6     1   ar
    46    26    22   ar
    47    19    13   ar
    48    11    12    1
@<TRIPOS>MOLECULE
*****
 44 48 0 0 0
SMALL
GASTEIGER

@<TRIPOS>ATOM
      1 C          61.3109   87.1385    9.4974 C.ar    1  UNL1        0.0611
      2 C          62.2012   85.9834    9.1463 C.ar    1  UNL1        0.0112
      3 C          62.6572   85.0358   10.2159 C.ar    1  UNL1        0.0208
      4 C          62.2230   85.2434   11.6366 C.ar    1  UNL1        0.1218
      5 N          61.3328   86.3984   11.9877 N.ar    1  UNL1       -0.2421
      6 C          60.8767   87.3460   10.9181 C.ar    1  UNL1        0.1068
      7 C          62.6791   84.2958   12.7063 C.3     1  UNL1        0.3254
      8 F          63.7162   84.1563   11.6315 F       1  UNL1       -0.1949
      9 F          61.4965   84.6758   13.5471 F       1  UNL1       -0.1949
     10 C          63.1351   83.3482   13.7759 C.3     1  UNL1        0.1933
     11 O          63.5912   82.4006   14.8455 O.3     1  UNL1       -0.3755
     12 H          63.5494   81.4910   14.5109 H       1  UNL1        0.2110
     13 C          63.3648   84.5049   14.7028 C.ar    1  UNL1        0.0389
     14 C          62.3716   84.8071   15.7854 C.ar    1  UNL1        0.0301
     15 C          62.6012   85.9639   16.7123 C.ar    1  UNL1        0.1401
     16 F          61.6080   86.2661   17.7950 F       1  UNL1       -0.2042
     17 C          63.8241   86.8185   16.5565 C.ar    1  UNL1        0.0319
     18 C          64.8173   86.5163   15.4739 C.ar    1  UNL1        0.0317
     19 C          64.5876   85.3595   14.5470 C.ar    1  UNL1        0.1387
     20 F          65.5809   85.0573   13.4643 F       1  UNL1       -0.2044
     21 C          62.9055   82.1914   12.8490 C.3     1  UNL1        0.1679
     22 N          62.0393   81.0453   13.2802 N.ar    1  UNL1       -0.2078
     23 C          60.7599   81.1503   14.0561 C.ar    1  UNL1        0.2216
     24 N          60.2302   79.7627   14.2667 N.ar    1  UNL1       -0.1048
     25 N          61.1824   78.8001   13.6211 N.ar    1  UNL1       -0.0226
     26 N          62.3004   79.5928   13.0114 N.ar    1  UNL1       -0.0428
     27 C          60.3988   89.0337    7.3582 C.1     1  UNL1       -0.0597
     28 C          60.8549   88.0861    8.4278 C.1     1  UNL1       -0.0582
     29 C          59.0307   91.8765    4.1493 C.ar    1  UNL1        0.1391
     30 C          58.0232   91.1975    5.0291 C.ar    1  UNL1        0.0375
     31 C          58.4792   90.2499    6.0987 C.ar    1  UNL1        0.0114
     32 C          59.9428   89.9813    6.2885 C.ar    1  UNL1        0.0422
     33 C          60.9502   90.6603    5.4088 C.ar    1  UNL1        0.0114
     34 C          60.4941   91.6079    4.3391 C.ar    1  UNL1        0.0375
     35 O          58.5746   92.8241    3.0797 O.3     1  UNL1       -0.4706
     36 C          59.0765   92.6672    1.6749 C.3     1  UNL1        0.2320
     37 C          63.0028   94.5060    0.4696 C.ar    1  UNL1        0.0684
     38 C          62.5303   93.2456   -0.1923 C.ar    1  UNL1        0.0101
     39 C          61.2216   92.6327    0.2095 C.ar    1  UNL1       -0.0000
     40 C          60.3853   93.2801    1.2731 C.ar    1  UNL1        0.0212
     41 C          60.8577   94.5405    1.9350 C.ar    1  UNL1       -0.0000
     42 C          62.1665   95.1535    1.5333 C.ar    1  UNL1        0.0101
     43 N          65.6203   95.7319   -0.3339 N.1     1  UNL1       -0.1908
     44 C          64.3116   95.1190    0.0678 C.1     1  UNL1        0.1004
@<TRIPOS>BOND
     1    43    44    3
     2    44    37    1
     3    37    38   ar
     4    38    39   ar
     5    39    40   ar
     6    40    36    1
     7    36    35    1
     8    35    29    1
     9    29    30   ar
    10    30    31   ar
    11    31    32   ar
    12    32    27    1
    13    27    28    3
    14    28     1    1
    15     1     2   ar
    16     2     3   ar
    17     3     4   ar
    18     4     7    1
    19     7     8    1
    20     7     9    1
    21     7    10    1
    22    10    11    1
    23    10    21    1
    24    21    22    1
    25    22    23   ar
    26    23    24   ar
    27    24    25   ar
    28    25    26   ar
    29    10    13    1
    30    13    14   ar
    31    14    15   ar
    32    15    16    1
    33    15    17   ar
    34    17    18   ar
    35    18    19   ar
    36    19    20    1
    37     4     5   ar
    38     5     6   ar
    39    32    33   ar
    40    33    34   ar
    41    40    41   ar
    42    41    42   ar
    43    42    37   ar
    44    34    29   ar
    45     6     1   ar
    46    26    22   ar
    47    19    13   ar
    48    11    12    1
