@<TRIPOS>MOLECULE
*****
 32 35 0 0 0
SMALL
GASTEIGER

@<TRIPOS>ATOM
      1 C          63.0287   89.3548   12.1475 C.ar    1  UNL1        0.1581
      2 C          63.9765   89.6072   13.2825 C.ar    1  UNL1        0.0694
      3 C          64.9098   90.7805   13.2333 C.ar    1  UNL1        0.1620
      4 F          65.8576   91.0329   14.3682 F       1  UNL1       -0.2026
      5 C          64.8953   91.7013   12.0493 C.ar    1  UNL1        0.1535
      6 C          63.9475   91.4489   10.9144 C.ar    1  UNL1        0.0370
      7 C          63.0142   90.2757   10.9636 C.ar    1  UNL1        0.0936
      8 CL         62.0663   90.0232    9.8286 Cl      1  UNL1       -0.0790
      9 S          65.8286   92.8746   12.0001 S.O2    1  UNL1        0.0773
     10 O          65.3027   93.3483   13.3226 O.2     1  UNL1       -0.1498
     11 O          66.3545   92.4008   10.6776 O.2     1  UNL1       -0.1498
     12 N          66.7619   94.0478   11.9510 N.pl3   1  UNL1       -0.1922
     13 H          67.3828   94.2145   12.6966 H       1  UNL1        0.1758
     14 C          66.7492   94.9672   10.7657 C.ar    1  UNL1        0.2010
     15 N          67.8044   95.0499    9.7028 N.ar    1  UNL1       -0.1241
     16 N          67.3865   96.0990    8.7155 N.ar    1  UNL1       -0.1374
     17 C          66.0730   96.6646    9.1683 C.ar    1  UNL1        0.1605
     18 S          65.6792   95.9650   10.4354 S.2     1  UNL1       -0.0272
     19 O          62.0953   88.1816   12.1967 O.3     1  UNL1       -0.4525
     20 C          62.3355   85.8071   11.1698 C.ar    1  UNL1        0.0527
     21 C          62.8857   84.4133   11.2349 C.ar    1  UNL1        0.0159
     22 C          63.7462   83.9999   12.3919 C.ar    1  UNL1        0.0579
     23 CL         64.2965   82.6060   12.4569 Cl      1  UNL1       -0.0822
     24 C          64.0564   84.9804   13.4838 C.ar    1  UNL1        0.0145
     25 C          63.5061   86.3743   13.4188 C.ar    1  UNL1        0.0384
     26 C          62.6457   86.7876   12.2618 C.ar    1  UNL1        0.1467
     27 C          62.9453   85.2175    8.0186 C.3     1  UNL1        0.1537
     28 N          61.7552   85.9495    8.5644 N.ar    1  UNL1       -0.2487
     29 N          60.6366   86.5390    7.7575 N.ar    1  UNL1       -0.1676
     30 C          59.6648   87.1744    8.7073 C.ar    1  UNL1        0.1217
     31 C          60.1830   86.9776   10.1011 C.ar    1  UNL1        0.0413
     32 C          61.4749   86.2205   10.0128 C.ar    1  UNL1        0.0825
@<TRIPOS>BOND
     1    27    28    1
     2    28    29   ar
     3    29    30   ar
     4    30    31   ar
     5    31    32   ar
     6    32    20    1
     7    20    21   ar
     8    21    22   ar
     9    22    23    1
    10    22    24   ar
    11    24    25   ar
    12    25    26   ar
    13    26    19    1
    14    19     1    1
    15     1     2   ar
    16     2     3   ar
    17     3     4    1
    18     3     5   ar
    19     5     9    1
    20     9    10    2
    21     9    11    2
    22     9    12    1
    23    12    14    1
    24    14    15   ar
    25    15    16   ar
    26    16    17   ar
    27    17    18   ar
    28     5     6   ar
    29     6     7   ar
    30     7     8    1
    31    32    28   ar
    32    26    20   ar
    33     7     1   ar
    34    18    14   ar
    35    12    13    1
@<TRIPOS>MOLECULE
*****
 32 35 0 0 0
SMALL
GASTEIGER

@<TRIPOS>ATOM
      1 C          63.1327   89.4434   12.2405 C.ar    1  UNL1        0.1581
      2 C          63.0935   90.3789   11.0686 C.ar    1  UNL1        0.0694
      3 C          64.0262   91.5524   11.0142 C.ar    1  UNL1        0.1620
      4 F          63.9871   92.4879    9.8424 F       1  UNL1       -0.2026
      5 C          64.9981   91.7903   12.1318 C.ar    1  UNL1        0.1535
      6 C          65.0373   90.8548   13.3036 C.ar    1  UNL1        0.0370
      7 C          64.1045   89.6814   13.3580 C.ar    1  UNL1        0.0936
      8 CL         64.1437   88.7458   14.5299 Cl      1  UNL1       -0.0790
      9 S          65.9308   92.9638   12.0774 S.O2    1  UNL1        0.0773
     10 O          66.4787   92.4679   10.7721 O.2     1  UNL1       -0.1498
     11 O          65.3830   93.4597   13.3828 O.2     1  UNL1       -0.1498
     12 N          66.8635   94.1373   12.0231 N.pl3   1  UNL1       -0.1922
     13 H          67.4630   94.3252   12.7811 H       1  UNL1        0.1758
     14 C          66.8830   95.0245   10.8137 C.ar    1  UNL1        0.2010
     15 N          67.9040   94.9955    9.7152 N.ar    1  UNL1       -0.1241
     16 N          67.5369   96.0495    8.7130 N.ar    1  UNL1       -0.1374
     17 C          66.2889   96.7300    9.1922 C.ar    1  UNL1        0.1605
     18 S          65.8848   96.0965   10.4904 S.2     1  UNL1       -0.0272
     19 O          62.2000   88.2699   12.2949 O.3     1  UNL1       -0.4525
     20 C          61.4719   86.4807   10.5573 C.ar    1  UNL1        0.0527
     21 C          60.6793   86.0958    9.3434 C.ar    1  UNL1        0.0159
     22 C          59.8223   87.1150    8.6531 C.ar    1  UNL1        0.0579
     23 CL         59.0297   86.7300    7.4391 Cl      1  UNL1       -0.0822
     24 C          59.7578   88.5192    9.1766 C.ar    1  UNL1        0.0145
     25 C          60.5503   88.9041   10.3905 C.ar    1  UNL1        0.0384
     26 C          61.4074   87.8849   11.0809 C.ar    1  UNL1        0.1467
     27 C          63.5079   84.3851    9.1038 C.3     1  UNL1        0.1537
     28 N          63.2648   84.4983   10.5796 N.ar    1  UNL1       -0.2487
     29 N          63.9149   83.6681   11.6465 N.ar    1  UNL1       -0.1676
     30 C          63.3808   84.1182   12.9740 C.ar    1  UNL1        0.1217
     31 C          62.4007   85.2266   12.7275 C.ar    1  UNL1        0.0413
     32 C          62.3290   85.4615   11.2477 C.ar    1  UNL1        0.0825
@<TRIPOS>BOND
     1    27    28    1
     2    28    29   ar
     3    29    30   ar
     4    30    31   ar
     5    31    32   ar
     6    32    20    1
     7    20    21   ar
     8    21    22   ar
     9    22    23    1
    10    22    24   ar
    11    24    25   ar
    12    25    26   ar
    13    26    19    1
    14    19     1    1
    15     1     2   ar
    16     2     3   ar
    17     3     4    1
    18     3     5   ar
    19     5     9    1
    20     9    10    2
    21     9    11    2
    22     9    12    1
    23    12    14    1
    24    14    15   ar
    25    15    16   ar
    26    16    17   ar
    27    17    18   ar
    28     5     6   ar
    29     6     7   ar
    30     7     8    1
    31    32    28   ar
    32    26    20   ar
    33     7     1   ar
    34    18    14   ar
    35    12    13    1
@<TRIPOS>MOLECULE
*****
 32 35 0 0 0
SMALL
GASTEIGER

@<TRIPOS>ATOM
      1 C          64.1085   88.1434   15.1764 C.ar    1  UNL1        0.1581
      2 C          64.4191   87.2495   14.0125 C.ar    1  UNL1        0.0694
      3 C          64.0253   85.8026   14.0521 C.ar    1  UNL1        0.1620
      4 F          64.3359   84.9087   12.8883 F       1  UNL1       -0.2026
      5 C          63.3211   85.2496   15.2556 C.ar    1  UNL1        0.1535
      6 C          63.0105   86.1435   16.4194 C.ar    1  UNL1        0.0370
      7 C          63.4043   87.5904   16.3798 C.ar    1  UNL1        0.0936
      8 CL         63.0937   88.4843   17.5437 Cl      1  UNL1       -0.0790
      9 S          62.9274   83.8028   15.2952 S.O2    1  UNL1        0.0773
     10 O          64.3711   83.4131   15.4124 O.2     1  UNL1       -0.1498
     11 O          61.4836   84.1924   15.1780 O.2     1  UNL1       -0.1498
     12 N          62.5337   82.3559   15.3348 N.pl3   1  UNL1       -0.1922
     13 H          62.2442   81.9475   16.1825 H       1  UNL1        0.1758
     14 C          62.5810   81.5312   14.0827 C.ar    1  UNL1        0.2010
     15 N          62.5936   80.0328   14.0138 N.ar    1  UNL1       -0.1241
     16 N          62.6444   79.6357   12.5682 N.ar    1  UNL1       -0.1374
     17 C          62.6631   80.8887   11.7437 C.ar    1  UNL1        0.1605
     18 S          62.6239   82.0601   12.6797 S.2     1  UNL1       -0.0272
     19 O          64.5022   89.5902   15.1369 O.3     1  UNL1       -0.4525
     20 C          65.3607   91.4986   13.5970 C.ar    1  UNL1        0.0527
     21 C          65.2835   92.2619   12.3081 C.ar    1  UNL1        0.0159
     22 C          64.2703   91.8802   11.2700 C.ar    1  UNL1        0.0579
     23 CL         64.1930   92.6435    9.9810 Cl      1  UNL1       -0.0822
     24 C          63.3344   90.7351   11.5208 C.ar    1  UNL1        0.0145
     25 C          63.4117   89.9718   12.8097 C.ar    1  UNL1        0.0384
     26 C          64.4249   90.3536   13.8479 C.ar    1  UNL1        0.1467
     27 C          64.7107   92.5186   16.6280 C.3     1  UNL1        0.1537
     28 N          66.0751   92.3492   16.0284 N.ar    1  UNL1       -0.2487
     29 N          67.3803   92.6189   16.7166 N.ar    1  UNL1       -0.1676
     30 C          68.4859   92.3168   15.7488 C.ar    1  UNL1        0.1217
     31 C          67.8638   91.8604   14.4625 C.ar    1  UNL1        0.0413
     32 C          66.3739   91.8804   14.6352 C.ar    1  UNL1        0.0825
@<TRIPOS>BOND
     1    27    28    1
     2    28    29   ar
     3    29    30   ar
     4    30    31   ar
     5    31    32   ar
     6    32    20    1
     7    20    21   ar
     8    21    22   ar
     9    22    23    1
    10    22    24   ar
    11    24    25   ar
    12    25    26   ar
    13    26    19    1
    14    19     1    1
    15     1     2   ar
    16     2     3   ar
    17     3     4    1
    18     3     5   ar
    19     5     9    1
    20     9    10    2
    21     9    11    2
    22     9    12    1
    23    12    14    1
    24    14    15   ar
    25    15    16   ar
    26    16    17   ar
    27    17    18   ar
    28     5     6   ar
    29     6     7   ar
    30     7     8    1
    31    32    28   ar
    32    26    20   ar
    33     7     1   ar
    34    18    14   ar
    35    12    13    1
@<TRIPOS>MOLECULE
*****
 32 35 0 0 0
SMALL
GASTEIGER

@<TRIPOS>ATOM
      1 C          63.9679   90.7941   12.4108 C.ar    1  UNL1        0.1581
      2 C          64.1373   89.6820   13.4030 C.ar    1  UNL1        0.0694
      3 C          63.5924   88.3176   13.1006 C.ar    1  UNL1        0.1620
      4 F          63.7619   87.2054   14.0928 F       1  UNL1       -0.2026
      5 C          62.8781   88.0653   11.8059 C.ar    1  UNL1        0.1535
      6 C          62.7086   89.1774   10.8138 C.ar    1  UNL1        0.0370
      7 C          63.2535   90.5418   11.1162 C.ar    1  UNL1        0.0936
      8 CL         63.0840   91.6540   10.1239 Cl      1  UNL1       -0.0790
      9 S          62.3332   86.7009   11.5035 S.O2    1  UNL1        0.0773
     10 O          61.5435   87.2693   10.3618 O.2     1  UNL1       -0.1498
     11 O          63.1228   86.1325   12.6452 O.2     1  UNL1       -0.1498
     12 N          61.7883   85.3365   11.2011 N.pl3   1  UNL1       -0.1922
     13 H          60.8188   85.2075   11.0882 H       1  UNL1        0.1758
     14 C          62.7205   84.1686   11.0706 C.ar    1  UNL1        0.2010
     15 N          63.7677   83.9904   10.0116 N.ar    1  UNL1       -0.1241
     16 N          64.4636   82.6855   10.2627 N.ar    1  UNL1       -0.1374
     17 C          63.8465   82.0573   11.4770 C.ar    1  UNL1        0.1605
     18 S          62.7692   82.9738   11.9763 S.2     1  UNL1       -0.0272
     19 O          64.5128   92.1585   12.7132 O.3     1  UNL1       -0.4525
     20 C          67.0366   92.6083   13.1353 C.ar    1  UNL1        0.0527
     21 C          68.1875   92.7627   14.0847 C.ar    1  UNL1        0.0159
     22 C          67.9657   92.6217   15.5615 C.ar    1  UNL1        0.0579
     23 CL         69.1167   92.7761   16.5110 Cl      1  UNL1       -0.0822
     24 C          66.5929   92.3263   16.0888 C.ar    1  UNL1        0.0145
     25 C          65.4419   92.1719   15.1394 C.ar    1  UNL1        0.0384
     26 C          65.6638   92.3129   13.6627 C.ar    1  UNL1        0.1467
     27 C          65.9901   95.0691   11.2647 C.3     1  UNL1        0.1537
     28 N          66.7774   93.8804   10.7987 N.ar    1  UNL1       -0.2487
     29 N          67.2219   93.6141    9.3910 N.ar    1  UNL1       -0.1676
     30 C          67.9777   92.3184    9.3808 C.ar    1  UNL1        0.1217
     31 C          68.0002   91.7840   10.7822 C.ar    1  UNL1        0.0413
     32 C          67.2584   92.7493   11.6585 C.ar    1  UNL1        0.0825
@<TRIPOS>BOND
     1    27    28    1
     2    28    29   ar
     3    29    30   ar
     4    30    31   ar
     5    31    32   ar
     6    32    20    1
     7    20    21   ar
     8    21    22   ar
     9    22    23    1
    10    22    24   ar
    11    24    25   ar
    12    25    26   ar
    13    26    19    1
    14    19     1    1
    15     1     2   ar
    16     2     3   ar
    17     3     4    1
    18     3     5   ar
    19     5     9    1
    20     9    10    2
    21     9    11    2
    22     9    12    1
    23    12    14    1
    24    14    15   ar
    25    15    16   ar
    26    16    17   ar
    27    17    18   ar
    28     5     6   ar
    29     6     7   ar
    30     7     8    1
    31    32    28   ar
    32    26    20   ar
    33     7     1   ar
    34    18    14   ar
    35    12    13    1
@<TRIPOS>MOLECULE
*****
 32 35 0 0 0
SMALL
GASTEIGER

@<TRIPOS>ATOM
      1 C          63.0133   89.0646   12.2323 C.ar    1  UNL1        0.1581
      2 C          63.9913   89.3132   13.3421 C.ar    1  UNL1        0.0694
      3 C          64.8687   90.5294   13.3101 C.ar    1  UNL1        0.1620
      4 F          65.8467   90.7781   14.4199 F       1  UNL1       -0.2026
      5 C          64.7681   91.4970   12.1683 C.ar    1  UNL1        0.1535
      6 C          63.7901   91.2483   11.0585 C.ar    1  UNL1        0.0370
      7 C          62.9127   90.0321   11.0905 C.ar    1  UNL1        0.0936
      8 CL         61.9346   89.7835    9.9807 Cl      1  UNL1       -0.0790
      9 S          65.6455   92.7132   12.1363 S.O2    1  UNL1        0.0773
     10 O          66.0448   92.3880   10.7275 O.2     1  UNL1       -0.1498
     11 O          65.2461   93.0384   13.5451 O.2     1  UNL1       -0.1498
     12 N          66.5228   93.9294   12.1043 N.pl3   1  UNL1       -0.1922
     13 H          67.0487   94.1781   12.8986 H       1  UNL1        0.1758
     14 C          66.5990   94.7668   10.8621 C.ar    1  UNL1        0.2010
     15 N          67.7034   94.7405    9.8474 N.ar    1  UNL1       -0.1241
     16 N          67.3711   95.7349    8.7746 N.ar    1  UNL1       -0.1374
     17 C          66.0613   96.3758    9.1264 C.ar    1  UNL1        0.1605
     18 S          65.5841   95.7775   10.4165 S.2     1  UNL1       -0.0272
     19 O          62.1359   87.8484   12.2643 O.3     1  UNL1       -0.4525
     20 C          63.2069   85.4858   12.4110 C.ar    1  UNL1        0.0527
     21 C          63.6559   84.2194   11.7444 C.ar    1  UNL1        0.0159
     22 C          63.4829   84.0490   10.2642 C.ar    1  UNL1        0.0579
     23 CL         63.9320   82.7826    9.5974 Cl      1  UNL1       -0.0822
     24 C          62.8610   85.1451    9.4507 C.ar    1  UNL1        0.0145
     25 C          62.4120   86.4115   10.1173 C.ar    1  UNL1        0.0384
     26 C          62.5849   86.5819   11.5975 C.ar    1  UNL1        0.1467
     27 C          61.9231   83.5758   14.7248 C.3     1  UNL1        0.1537
     28 N          62.7897   84.7783   14.9548 N.ar    1  UNL1       -0.2487
     29 N          63.2184   85.3140   16.2887 N.ar    1  UNL1       -0.1676
     30 C          64.0735   86.5230   16.0496 C.ar    1  UNL1        0.1217
     31 C          64.1732   86.7345   14.5680 C.ar    1  UNL1        0.0413
     32 C          63.3798   85.6562   13.8913 C.ar    1  UNL1        0.0825
@<TRIPOS>BOND
     1    27    28    1
     2    28    29   ar
     3    29    30   ar
     4    30    31   ar
     5    31    32   ar
     6    32    20    1
     7    20    21   ar
     8    21    22   ar
     9    22    23    1
    10    22    24   ar
    11    24    25   ar
    12    25    26   ar
    13    26    19    1
    14    19     1    1
    15     1     2   ar
    16     2     3   ar
    17     3     4    1
    18     3     5   ar
    19     5     9    1
    20     9    10    2
    21     9    11    2
    22     9    12    1
    23    12    14    1
    24    14    15   ar
    25    15    16   ar
    26    16    17   ar
    27    17    18   ar
    28     5     6   ar
    29     6     7   ar
    30     7     8    1
    31    32    28   ar
    32    26    20   ar
    33     7     1   ar
    34    18    14   ar
    35    12    13    1
@<TRIPOS>MOLECULE
*****
 32 35 0 0 0
SMALL
GASTEIGER

@<TRIPOS>ATOM
      1 C          63.4512   88.7911   12.7399 C.ar    1  UNL1        0.1581
      2 C          63.4309   90.0485   11.9221 C.ar    1  UNL1        0.0694
      3 C          64.1667   91.2654   12.3993 C.ar    1  UNL1        0.1620
      4 F          64.1464   92.5228   11.5817 F       1  UNL1       -0.2026
      5 C          64.9227   91.2250   13.6943 C.ar    1  UNL1        0.1535
      6 C          64.9430   89.9676   14.5119 C.ar    1  UNL1        0.0370
      7 C          64.2073   88.7507   14.0347 C.ar    1  UNL1        0.0936
      8 CL         64.2276   87.4933   14.8525 Cl      1  UNL1       -0.0790
      9 S          65.6585   92.4419   14.1715 S.O2    1  UNL1        0.0773
     10 O          64.9085   92.3864   15.4693 O.2     1  UNL1       -0.1498
     11 O          66.4085   92.4974   12.8736 O.2     1  UNL1       -0.1498
     12 N          66.3943   93.6588   14.6487 N.pl3   1  UNL1       -0.1922
     13 H          66.0058   94.5534   14.5138 H       1  UNL1        0.1758
     14 C          67.7219   93.5129   15.3314 C.ar    1  UNL1        0.2010
     15 N          68.5986   94.6347   15.8037 N.ar    1  UNL1       -0.1241
     16 N          69.8245   94.0346   16.4259 N.ar    1  UNL1       -0.1374
     17 C          69.7054   92.5419   16.3382 C.ar    1  UNL1        0.1605
     18 S          68.4060   92.2195   15.6618 S.2     1  UNL1       -0.0272
     19 O          62.7154   87.5742   12.2627 O.3     1  UNL1       -0.4525
     20 C          61.6198   86.5173   10.1573 C.ar    1  UNL1        0.0527
     21 C          60.6793   86.6180    8.9931 C.ar    1  UNL1        0.0159
     22 C          59.8939   87.8763    8.7702 C.ar    1  UNL1        0.0579
     23 CL         58.9534   87.9770    7.6059 Cl      1  UNL1       -0.0822
     24 C          60.0490   89.0339    9.7114 C.ar    1  UNL1        0.0145
     25 C          60.9895   88.9332   10.8755 C.ar    1  UNL1        0.0384
     26 C          61.7749   87.6749   11.0985 C.ar    1  UNL1        0.1467
     27 C          63.2730   84.8595    7.8837 C.3     1  UNL1        0.1537
     28 N          63.1651   84.4970    9.3353 N.ar    1  UNL1       -0.2487
     29 N          63.7983   83.3088    9.9966 N.ar    1  UNL1       -0.1676
     30 C          63.4297   83.3364   11.4504 C.ar    1  UNL1        0.1217
     31 C          62.5688   84.5417   11.6875 C.ar    1  UNL1        0.0413
     32 C          62.4053   85.2589   10.3803 C.ar    1  UNL1        0.0825
@<TRIPOS>BOND
     1    27    28    1
     2    28    29   ar
     3    29    30   ar
     4    30    31   ar
     5    31    32   ar
     6    32    20    1
     7    20    21   ar
     8    21    22   ar
     9    22    23    1
    10    22    24   ar
    11    24    25   ar
    12    25    26   ar
    13    26    19    1
    14    19     1    1
    15     1     2   ar
    16     2     3   ar
    17     3     4    1
    18     3     5   ar
    19     5     9    1
    20     9    10    2
    21     9    11    2
    22     9    12    1
    23    12    14    1
    24    14    15   ar
    25    15    16   ar
    26    16    17   ar
    27    17    18   ar
    28     5     6   ar
    29     6     7   ar
    30     7     8    1
    31    32    28   ar
    32    26    20   ar
    33     7     1   ar
    34    18    14   ar
    35    12    13    1
@<TRIPOS>MOLECULE
*****
 32 35 0 0 0
SMALL
GASTEIGER

@<TRIPOS>ATOM
      1 C          63.0930   87.8240   12.6446 C.ar    1  UNL1        0.1581
      2 C          62.8755   89.0396   11.7930 C.ar    1  UNL1        0.0694
      3 C          63.5367   90.3366   12.1545 C.ar    1  UNL1        0.1620
      4 F          63.3192   91.5521   11.3030 F       1  UNL1       -0.2026
      5 C          64.4153   90.4180   13.3675 C.ar    1  UNL1        0.1535
      6 C          64.6328   89.2024   14.2190 C.ar    1  UNL1        0.0370
      7 C          63.9717   87.9054   13.8575 C.ar    1  UNL1        0.0936
      8 CL         64.1892   86.6898   14.7091 Cl      1  UNL1       -0.0790
      9 S          65.0765   91.7150   13.7290 S.O2    1  UNL1        0.0773
     10 O          64.5728   91.5798   15.1354 O.2     1  UNL1       -0.1498
     11 O          65.5802   91.8502   12.3225 O.2     1  UNL1       -0.1498
     12 N          65.7376   93.0120   14.0904 N.pl3   1  UNL1       -0.1922
     13 H          65.2261   93.8523   14.0536 H       1  UNL1        0.1758
     14 C          67.1783   93.0286   14.5081 C.ar    1  UNL1        0.2010
     15 N          68.3321   92.4887   13.7161 N.ar    1  UNL1       -0.1241
     16 N          69.5849   92.7144   14.5095 N.ar    1  UNL1       -0.1374
     17 C          69.2053   93.3938   15.7919 C.ar    1  UNL1        0.1605
     18 S          67.7180   93.5880   15.7910 S.2     1  UNL1       -0.0272
     19 O          62.4319   86.5270   12.2831 O.3     1  UNL1       -0.4525
     20 C          63.0102   84.6757   10.5543 C.ar    1  UNL1        0.0527
     21 C          63.0431   84.1867    9.1367 C.ar    1  UNL1        0.0159
     22 C          62.5305   85.0599    8.0301 C.ar    1  UNL1        0.0579
     23 CL         62.5633   84.5709    6.6124 Cl      1  UNL1       -0.0822
     24 C          61.9849   86.4221    8.3411 C.ar    1  UNL1        0.0145
     25 C          61.9521   86.9112    9.7587 C.ar    1  UNL1        0.0384
     26 C          62.4647   86.0380   10.8654 C.ar    1  UNL1        0.1467
     27 C          63.2820   81.4249   10.4636 C.3     1  UNL1        0.1537
     28 N          63.6478   82.3083   11.6193 N.ar    1  UNL1       -0.2487
     29 N          64.2028   81.8526   12.9362 N.ar    1  UNL1       -0.1676
     30 C          64.4209   83.0652   13.7920 C.ar    1  UNL1        0.1217
     31 C          64.0007   84.2703   13.0038 C.ar    1  UNL1        0.0413
     32 C          63.5229   83.8025   11.6611 C.ar    1  UNL1        0.0825
@<TRIPOS>BOND
     1    27    28    1
     2    28    29   ar
     3    29    30   ar
     4    30    31   ar
     5    31    32   ar
     6    32    20    1
     7    20    21   ar
     8    21    22   ar
     9    22    23    1
    10    22    24   ar
    11    24    25   ar
    12    25    26   ar
    13    26    19    1
    14    19     1    1
    15     1     2   ar
    16     2     3   ar
    17     3     4    1
    18     3     5   ar
    19     5     9    1
    20     9    10    2
    21     9    11    2
    22     9    12    1
    23    12    14    1
    24    14    15   ar
    25    15    16   ar
    26    16    17   ar
    27    17    18   ar
    28     5     6   ar
    29     6     7   ar
    30     7     8    1
    31    32    28   ar
    32    26    20   ar
    33     7     1   ar
    34    18    14   ar
    35    12    13    1
@<TRIPOS>MOLECULE
*****
 32 35 0 0 0
SMALL
GASTEIGER

@<TRIPOS>ATOM
      1 C          61.9358   86.6557   11.1136 C.ar    1  UNL1        0.1581
      2 C          61.4305   85.7912    9.9967 C.ar    1  UNL1        0.0694
      3 C          60.5829   86.3868    8.9119 C.ar    1  UNL1        0.1620
      4 F          60.0776   85.5223    7.7950 F       1  UNL1       -0.2026
      5 C          60.2406   87.8469    8.9439 C.ar    1  UNL1        0.1535
      6 C          60.7459   88.7113   10.0608 C.ar    1  UNL1        0.0370
      7 C          61.5935   88.1157   11.1456 C.ar    1  UNL1        0.0936
      8 CL         62.0988   88.9802   12.2625 Cl      1  UNL1       -0.0790
      9 S          59.3930   88.4425    7.8591 S.O2    1  UNL1        0.0773
     10 O          58.5946   87.1747    7.7869 O.2     1  UNL1       -0.1498
     11 O          60.1915   89.7103    7.9314 O.2     1  UNL1       -0.1498
     12 N          58.5454   89.0381    6.7743 N.pl3   1  UNL1       -0.1922
     13 H          57.6266   88.7137    6.6335 H       1  UNL1        0.1758
     14 C          59.0978   90.1279    5.9040 C.ar    1  UNL1        0.2010
     15 N          60.5179   90.2481    5.4362 N.ar    1  UNL1       -0.1241
     16 N          60.6249   91.4833    4.5919 N.ar    1  UNL1       -0.1374
     17 C          59.2708   92.1265    4.5379 C.ar    1  UNL1        0.1605
     18 S          58.3270   91.2888    5.3489 S.2     1  UNL1       -0.0272
     19 O          62.7834   86.0601   12.1984 O.3     1  UNL1       -0.4525
     20 C          62.8167   84.0024   13.7843 C.ar    1  UNL1        0.0527
     21 C          62.8449   82.5160   13.9832 C.ar    1  UNL1        0.0159
     22 C          62.8678   81.6006   12.7951 C.ar    1  UNL1        0.0579
     23 CL         62.8960   80.1141   12.9940 Cl      1  UNL1       -0.0822
     24 C          62.8626   82.1717   11.4081 C.ar    1  UNL1        0.0145
     25 C          62.8345   83.6582   11.2092 C.ar    1  UNL1        0.0384
     26 C          62.8116   84.5735   12.3973 C.ar    1  UNL1        0.1467
     27 C          65.2402   85.9691   14.7378 C.3     1  UNL1        0.1537
     28 N          63.9077   85.8218   15.4107 N.ar    1  UNL1       -0.2487
     29 N          63.4552   86.5526   16.6399 N.ar    1  UNL1       -0.1676
     30 C          62.0616   86.1003   16.9615 C.ar    1  UNL1        0.1217
     31 C          61.6528   85.0900   15.9309 C.ar    1  UNL1        0.0413
     32 C          62.7938   84.9178   14.9724 C.ar    1  UNL1        0.0825
@<TRIPOS>BOND
     1    27    28    1
     2    28    29   ar
     3    29    30   ar
     4    30    31   ar
     5    31    32   ar
     6    32    20    1
     7    20    21   ar
     8    21    22   ar
     9    22    23    1
    10    22    24   ar
    11    24    25   ar
    12    25    26   ar
    13    26    19    1
    14    19     1    1
    15     1     2   ar
    16     2     3   ar
    17     3     4    1
    18     3     5   ar
    19     5     9    1
    20     9    10    2
    21     9    11    2
    22     9    12    1
    23    12    14    1
    24    14    15   ar
    25    15    16   ar
    26    16    17   ar
    27    17    18   ar
    28     5     6   ar
    29     6     7   ar
    30     7     8    1
    31    32    28   ar
    32    26    20   ar
    33     7     1   ar
    34    18    14   ar
    35    12    13    1
@<TRIPOS>MOLECULE
*****
 32 35 0 0 0
SMALL
GASTEIGER

@<TRIPOS>ATOM
      1 C          63.2597   89.3196   12.4011 C.ar    1  UNL1        0.1581
      2 C          63.1904   90.2060   11.1929 C.ar    1  UNL1        0.0694
      3 C          63.9741   91.4844   11.1547 C.ar    1  UNL1        0.1620
      4 F          63.9048   92.3707    9.9466 F       1  UNL1       -0.2026
      5 C          64.8271   91.8765   12.3247 C.ar    1  UNL1        0.1535
      6 C          64.8963   90.9901   13.5328 C.ar    1  UNL1        0.0370
      7 C          64.1126   89.7117   13.5710 C.ar    1  UNL1        0.0936
      8 CL         64.1819   88.8254   14.7792 Cl      1  UNL1       -0.0790
      9 S          65.6107   93.1549   12.2865 S.O2    1  UNL1        0.0773
     10 O          65.8109   93.0766   13.7710 O.2     1  UNL1       -0.1498
     11 O          65.4106   93.2332   10.8020 O.2     1  UNL1       -0.1498
     12 N          66.3944   94.4333   12.2483 N.pl3   1  UNL1       -0.1922
     13 H          66.8150   94.7776   13.0692 H       1  UNL1        0.1758
     14 C          66.5373   95.1872   10.9593 C.ar    1  UNL1        0.2010
     15 N          65.8132   96.4481   10.5905 N.ar    1  UNL1       -0.1241
     16 N          66.2577   96.8527    9.2162 N.ar    1  UNL1       -0.1374
     17 C          67.2564   95.8419    8.7357 C.ar    1  UNL1        0.1605
     18 S          67.4292   94.8126    9.8130 S.2     1  UNL1       -0.0272
     19 O          62.4760   88.0412   12.4393 O.3     1  UNL1       -0.4525
     20 C          62.7402   85.7279   11.2864 C.ar    1  UNL1        0.0527
     21 C          62.6456   84.8693   10.0601 C.ar    1  UNL1        0.0159
     22 C          62.1922   85.4653    8.7605 C.ar    1  UNL1        0.0579
     23 CL         62.0976   84.6067    7.5341 Cl      1  UNL1       -0.0822
     24 C          61.8334   86.9199    8.6871 C.ar    1  UNL1        0.0145
     25 C          61.9280   87.7785    9.9133 C.ar    1  UNL1        0.0384
     26 C          62.3814   87.1825   11.2130 C.ar    1  UNL1        0.1467
     27 C          62.4825   82.5920   12.1523 C.3     1  UNL1        0.1537
     28 N          63.0751   83.6906   12.9841 N.ar    1  UNL1       -0.2487
     29 N          63.6534   83.5406   14.3600 N.ar    1  UNL1       -0.1676
     30 C          64.1292   84.8893   14.8125 C.ar    1  UNL1        0.1217
     31 C          63.8450   85.8728   13.7161 C.ar    1  UNL1        0.0413
     32 C          63.1936   85.1319   12.5862 C.ar    1  UNL1        0.0825
@<TRIPOS>BOND
     1    27    28    1
     2    28    29   ar
     3    29    30   ar
     4    30    31   ar
     5    31    32   ar
     6    32    20    1
     7    20    21   ar
     8    21    22   ar
     9    22    23    1
    10    22    24   ar
    11    24    25   ar
    12    25    26   ar
    13    26    19    1
    14    19     1    1
    15     1     2   ar
    16     2     3   ar
    17     3     4    1
    18     3     5   ar
    19     5     9    1
    20     9    10    2
    21     9    11    2
    22     9    12    1
    23    12    14    1
    24    14    15   ar
    25    15    16   ar
    26    16    17   ar
    27    17    18   ar
    28     5     6   ar
    29     6     7   ar
    30     7     8    1
    31    32    28   ar
    32    26    20   ar
    33     7     1   ar
    34    18    14   ar
    35    12    13    1
