@<TRIPOS>MOLECULE
*****
 30 33 0 0 0
SMALL
GASTEIGER

@<TRIPOS>ATOM
      1 N          63.1442   84.6058   13.2936 N.pl3   1  UNL1       -0.2852
      2 C          63.8689   85.1165   14.5036 C.3     1  UNL1        0.1220
      3 C          64.1002   86.5871   14.3192 C.ar    1  UNL1        0.0337
      4 C          64.6910   87.8115   14.9530 C.ar    1  UNL1        0.0990
      5 N          64.4744   88.9664   14.0207 N.ar    1  UNL1       -0.2287
      6 N          63.7497   88.4558   12.8107 N.ar    1  UNL1       -0.1681
      7 C          63.5184   86.9853   12.9951 C.ar    1  UNL1        0.0960
      8 C          62.9276   85.7609   12.3613 C.3     1  UNL1        0.1160
      9 C          61.3667   81.0938   13.7989 C.ar    1  UNL1        0.2289
     10 C          61.7989   82.5105   14.0351 C.ar    1  UNL1        0.0920
     11 C          62.7120   83.1891   13.0574 C.ar    1  UNL1        0.1382
     12 N          63.1929   82.4508   11.8435 N.ar    1  UNL1       -0.2158
     13 C          62.7607   81.0339   11.6072 C.ar    1  UNL1        0.1441
     14 C          63.2416   80.2956   10.3932 C.3     1  UNL1        0.0738
     15 N          61.8476   80.3554   12.5849 N.ar    1  UNL1       -0.1966
     16 C          59.0773   79.9970   14.3514 C.3     1  UNL1        0.2542
     17 O          60.4536   80.4152   14.7766 O.3     1  UNL1       -0.4560
     18 C          64.9066   90.3832   14.2569 C.ar    1  UNL1        0.0841
     19 C          64.9647   90.9266   15.6538 C.ar    1  UNL1        0.0192
     20 C          65.3970   92.3435   15.8899 C.ar    1  UNL1        0.0029
     21 C          65.7710   93.2170   14.7293 C.ar    1  UNL1        0.0184
     22 C          65.7128   92.6736   13.3324 C.ar    1  UNL1        0.1072
     23 C          65.2806   91.2567   13.0963 C.ar    1  UNL1        0.0375
     24 S          66.0869   93.5469   12.1717 S.O2    1  UNL1        0.0105
     25 C          66.4609   94.4203   11.0110 C.3     1  UNL1        0.1816
     26 O          65.8395   92.4042   11.2320 O.2     1  UNL1       -0.1686
     27 O          66.3343   94.6897   13.1114 O.2     1  UNL1       -0.1686
     28 C          62.2407   85.7018   11.0291 C.3     1  UNL1        0.0240
     29 C          60.9401   86.4203   10.8233 C.3     1  UNL1        0.0021
     30 C          62.8544   84.9243    9.9027 C.3     1  UNL1        0.0021
@<TRIPOS>BOND
     1    16    17    1
     2    17     9    1
     3     9    10   ar
     4    10    11   ar
     5    11     1    1
     6     1     2    1
     7     2     3    1
     8     3     4   ar
     9     4     5   ar
    10     5    18    1
    11    18    19   ar
    12    19    20   ar
    13    20    21   ar
    14    21    22   ar
    15    22    24    1
    16    24    25    1
    17    24    26    2
    18    24    27    2
    19    22    23   ar
    20     5     6   ar
    21     6     7   ar
    22     7     8    1
    23     8    28    1
    24    28    29    1
    25    28    30    1
    26    11    12   ar
    27    12    13   ar
    28    13    14    1
    29    13    15   ar
    30    15     9   ar
    31     8     1    1
    32     7     3   ar
    33    23    18   ar
@<TRIPOS>MOLECULE
*****
 30 33 0 0 0
SMALL
GASTEIGER

@<TRIPOS>ATOM
      1 N          63.1873   84.5315   13.1310 N.pl3   1  UNL1       -0.2852
      2 C          63.9096   85.0122   14.3546 C.3     1  UNL1        0.1220
      3 C          64.1019   86.4944   14.2271 C.ar    1  UNL1        0.0337
      4 C          64.6671   87.7074   14.9046 C.ar    1  UNL1        0.0990
      5 N          64.4131   88.8925   14.0208 N.ar    1  UNL1       -0.2287
      6 N          63.6909   88.4118   12.7971 N.ar    1  UNL1       -0.1681
      7 C          63.4985   86.9297   12.9246 C.ar    1  UNL1        0.0960
      8 C          62.9333   85.7166   12.2471 C.3     1  UNL1        0.1160
      9 C          62.8992   81.0125   11.3190 C.ar    1  UNL1        0.2289
     10 C          63.2974   82.4294   11.6081 C.ar    1  UNL1        0.0920
     11 C          62.7891   83.1146   12.8419 C.ar    1  UNL1        0.1382
     12 N          61.8824   82.3827   13.7865 N.ar    1  UNL1       -0.2158
     13 C          61.4841   80.9657   13.4974 C.ar    1  UNL1        0.1441
     14 C          60.5774   80.2339   14.4420 C.3     1  UNL1        0.0738
     15 N          61.9925   80.2806   12.2637 N.ar    1  UNL1       -0.1966
     16 C          62.8020   79.0272    9.6459 C.3     1  UNL1        0.2542
     17 O          63.4076   80.3274   10.0852 O.3     1  UNL1       -0.4560
     18 C          64.8114   90.3095   14.3098 C.ar    1  UNL1        0.0841
     19 C          64.7869   90.8228   15.7191 C.ar    1  UNL1        0.0192
     20 C          65.1852   92.2398   16.0081 C.ar    1  UNL1        0.0029
     21 C          65.6079   93.1435   14.8879 C.ar    1  UNL1        0.0184
     22 C          65.6324   92.6301   13.4787 C.ar    1  UNL1        0.1072
     23 C          65.2341   91.2131   13.1897 C.ar    1  UNL1        0.0375
     24 S          66.0550   93.5337   12.3585 S.O2    1  UNL1        0.0105
     25 C          66.4777   94.4373   11.2383 C.3     1  UNL1        0.1816
     26 O          66.8554   94.3565   13.3241 O.2     1  UNL1       -0.1686
     27 O          65.2546   92.7109   11.3929 O.2     1  UNL1       -0.1686
     28 C          62.2364   85.6928   10.9191 C.3     1  UNL1        0.0240
     29 C          60.9171   86.3869   10.7518 C.3     1  UNL1        0.0021
     30 C          62.8586   84.9749    9.7583 C.3     1  UNL1        0.0021
@<TRIPOS>BOND
     1    16    17    1
     2    17     9    1
     3     9    10   ar
     4    10    11   ar
     5    11     1    1
     6     1     2    1
     7     2     3    1
     8     3     4   ar
     9     4     5   ar
    10     5    18    1
    11    18    19   ar
    12    19    20   ar
    13    20    21   ar
    14    21    22   ar
    15    22    24    1
    16    24    25    1
    17    24    26    2
    18    24    27    2
    19    22    23   ar
    20     5     6   ar
    21     6     7   ar
    22     7     8    1
    23     8    28    1
    24    28    29    1
    25    28    30    1
    26    11    12   ar
    27    12    13   ar
    28    13    14    1
    29    13    15   ar
    30    15     9   ar
    31     8     1    1
    32     7     3   ar
    33    23    18   ar
@<TRIPOS>MOLECULE
*****
 30 33 0 0 0
SMALL
GASTEIGER

@<TRIPOS>ATOM
      1 N          61.7790   86.5426   10.6280 N.pl3   1  UNL1       -0.2852
      2 C          61.2502   86.0804    9.3025 C.3     1  UNL1        0.1220
      3 C          60.7475   87.2824    8.5593 C.ar    1  UNL1        0.0337
      4 C          60.1100   87.7395    7.2808 C.ar    1  UNL1        0.0990
      5 N          59.9340   89.2272    7.3567 N.ar    1  UNL1       -0.2287
      6 N          60.4628   89.6895    8.6821 N.ar    1  UNL1       -0.1681
      7 C          60.9655   88.4876    9.4253 C.ar    1  UNL1        0.0960
      8 C          61.6030   88.0304   10.7038 C.3     1  UNL1        0.1160
      9 C          62.8446   83.3068   12.6635 C.ar    1  UNL1        0.2289
     10 C          62.2452   84.1790   11.6006 C.ar    1  UNL1        0.0920
     11 C          62.3785   85.6704   11.6908 C.ar    1  UNL1        0.1382
     12 N          63.1113   86.2895   12.8440 N.ar    1  UNL1       -0.2158
     13 C          63.7108   85.4172   13.9070 C.ar    1  UNL1        0.1441
     14 C          64.4436   86.0363   15.0601 C.3     1  UNL1        0.0738
     15 N          63.5775   83.9259   13.8167 N.ar    1  UNL1       -0.1966
     16 C          62.0881   81.0486   13.7018 C.3     1  UNL1        0.2542
     17 O          62.7113   81.8154   12.5733 O.3     1  UNL1       -0.4560
     18 C          59.3345   90.0995    6.2938 C.ar    1  UNL1        0.0841
     19 C          57.8449   90.2441    6.1942 C.ar    1  UNL1        0.0192
     20 C          57.2455   91.1165    5.1312 C.ar    1  UNL1        0.0029
     21 C          58.1357   91.8441    4.1679 C.ar    1  UNL1        0.0184
     22 C          59.6254   91.6995    4.2675 C.ar    1  UNL1        0.1072
     23 C          60.2248   90.8272    5.3304 C.ar    1  UNL1        0.0375
     24 S          60.5156   92.4271    3.3042 S.O2    1  UNL1        0.0105
     25 C          61.4060   93.1547    2.3410 C.3     1  UNL1        0.1816
     26 O          59.3142   93.0773    2.6848 O.2     1  UNL1       -0.1686
     27 O          61.7172   91.7769    3.9237 O.2     1  UNL1       -0.1686
     28 C          61.9957   88.9071   11.8560 C.3     1  UNL1        0.0240
     29 C          63.4324   88.9908   12.2791 C.3     1  UNL1        0.0021
     30 C          60.9517   89.6999   12.5849 C.3     1  UNL1        0.0021
@<TRIPOS>BOND
     1    16    17    1
     2    17     9    1
     3     9    10   ar
     4    10    11   ar
     5    11     1    1
     6     1     2    1
     7     2     3    1
     8     3     4   ar
     9     4     5   ar
    10     5    18    1
    11    18    19   ar
    12    19    20   ar
    13    20    21   ar
    14    21    22   ar
    15    22    24    1
    16    24    25    1
    17    24    26    2
    18    24    27    2
    19    22    23   ar
    20     5     6   ar
    21     6     7   ar
    22     7     8    1
    23     8    28    1
    24    28    29    1
    25    28    30    1
    26    11    12   ar
    27    12    13   ar
    28    13    14    1
    29    13    15   ar
    30    15     9   ar
    31     8     1    1
    32     7     3   ar
    33    23    18   ar
@<TRIPOS>MOLECULE
*****
 30 33 0 0 0
SMALL
GASTEIGER

@<TRIPOS>ATOM
      1 N          61.7762   86.3666   10.7425 N.pl3   1  UNL1       -0.2852
      2 C          60.9593   87.6018   10.9819 C.3     1  UNL1        0.1220
      3 C          60.5711   88.1667    9.6477 C.ar    1  UNL1        0.0337
      4 C          59.8263   89.2791    8.9711 C.ar    1  UNL1        0.0990
      5 N          59.9429   89.0807    7.4889 N.ar    1  UNL1       -0.2287
      6 N          60.7598   87.8456    7.2494 N.ar    1  UNL1       -0.1681
      7 C          61.1480   87.2807    8.5836 C.ar    1  UNL1        0.0960
      8 C          61.8928   86.1682    9.2602 C.3     1  UNL1        0.1160
      9 C          62.6731   83.1322   12.8598 C.ar    1  UNL1        0.2289
     10 C          62.0775   84.0139   11.8027 C.ar    1  UNL1        0.0920
     11 C          62.3718   85.4848   11.7996 C.ar    1  UNL1        0.1382
     12 N          63.2617   86.0738   12.8536 N.ar    1  UNL1       -0.2158
     13 C          63.8574   85.1920   13.9108 C.ar    1  UNL1        0.1441
     14 C          64.7474   85.7810   14.9649 C.3     1  UNL1        0.0738
     15 N          63.5631   83.7212   13.9139 N.ar    1  UNL1       -0.1966
     16 C          61.5526   81.0641   13.9632 C.3     1  UNL1        0.2542
     17 O          62.3788   81.6612   12.8629 O.3     1  UNL1       -0.4560
     18 C          59.3473   89.9625    6.4317 C.ar    1  UNL1        0.0841
     19 C          57.8577   90.0992    6.3209 C.ar    1  UNL1        0.0192
     20 C          57.2621   90.9811    5.2636 C.ar    1  UNL1        0.0029
     21 C          58.1561   91.7262    4.3173 C.ar    1  UNL1        0.0184
     22 C          59.6457   91.5894    4.4281 C.ar    1  UNL1        0.1072
     23 C          60.2413   90.7076    5.4853 C.ar    1  UNL1        0.0375
     24 S          60.5398   92.3345    3.4818 S.O2    1  UNL1        0.0105
     25 C          61.4338   93.0796    2.5355 C.3     1  UNL1        0.1816
     26 O          61.7331   91.6267    4.0519 O.2     1  UNL1       -0.1686
     27 O          59.3464   93.0423    2.9117 O.2     1  UNL1       -0.1686
     28 C          62.6255   85.0531    8.5748 C.3     1  UNL1        0.0240
     29 C          63.6795   84.2828    9.3136 C.3     1  UNL1        0.0021
     30 C          62.3042   84.7083    7.1508 C.3     1  UNL1        0.0021
@<TRIPOS>BOND
     1    16    17    1
     2    17     9    1
     3     9    10   ar
     4    10    11   ar
     5    11     1    1
     6     1     2    1
     7     2     3    1
     8     3     4   ar
     9     4     5   ar
    10     5    18    1
    11    18    19   ar
    12    19    20   ar
    13    20    21   ar
    14    21    22   ar
    15    22    24    1
    16    24    25    1
    17    24    26    2
    18    24    27    2
    19    22    23   ar
    20     5     6   ar
    21     6     7   ar
    22     7     8    1
    23     8    28    1
    24    28    29    1
    25    28    30    1
    26    11    12   ar
    27    12    13   ar
    28    13    14    1
    29    13    15   ar
    30    15     9   ar
    31     8     1    1
    32     7     3   ar
    33    23    18   ar
@<TRIPOS>MOLECULE
*****
 30 33 0 0 0
SMALL
GASTEIGER

@<TRIPOS>ATOM
      1 N          64.3591   90.6512   13.4170 N.pl3   1  UNL1       -0.2852
      2 C          63.9776   91.1118   12.0413 C.3     1  UNL1        0.1220
      3 C          63.1994   90.0113   11.3831 C.ar    1  UNL1        0.0337
      4 C          62.4826   89.6159   10.1262 C.ar    1  UNL1        0.0990
      5 N          61.9402   88.2307   10.3182 N.ar    1  UNL1       -0.2287
      6 N          62.3216   87.7700   11.6938 N.ar    1  UNL1       -0.1681
      7 C          63.0999   88.8705   12.3520 C.ar    1  UNL1        0.0960
      8 C          63.8166   89.2659   13.6089 C.3     1  UNL1        0.1160
      9 C          67.3587   92.5882   15.1491 C.ar    1  UNL1        0.2289
     10 C          66.5728   91.8017   14.1423 C.ar    1  UNL1        0.0920
     11 C          65.1450   91.4377   14.4237 C.ar    1  UNL1        0.1382
     12 N          64.5034   91.8601   15.7120 N.ar    1  UNL1       -0.2158
     13 C          65.2893   92.6466   16.7189 C.ar    1  UNL1        0.1441
     14 C          64.6476   93.0691   18.0072 C.3     1  UNL1        0.0738
     15 N          66.7169   93.0106   16.4375 N.ar    1  UNL1       -0.1966
     16 C          69.5565   93.7825   15.8513 C.3     1  UNL1        0.2542
     17 O          68.7864   92.9522   14.8676 O.3     1  UNL1       -0.4560
     18 C          61.1542   87.4442    9.3114 C.ar    1  UNL1        0.0841
     19 C          59.6708   87.6374    9.2011 C.ar    1  UNL1        0.0192
     20 C          58.8849   86.8509    8.1942 C.ar    1  UNL1        0.0029
     21 C          59.5823   85.8711    7.2977 C.ar    1  UNL1        0.0184
     22 C          61.0657   85.6779    7.4080 C.ar    1  UNL1        0.1072
     23 C          61.8516   86.4645    8.4149 C.ar    1  UNL1        0.0375
     24 S          61.7632   84.6982    6.5116 S.O2    1  UNL1        0.0105
     25 C          62.4606   83.7185    5.6151 C.3     1  UNL1        0.1816
     26 O          63.0631   84.9945    7.1990 O.2     1  UNL1       -0.1686
     27 O          60.4633   84.4019    5.8241 O.2     1  UNL1       -0.1686
     28 C          63.9648   88.4240   14.8415 C.3     1  UNL1        0.0240
     29 C          64.6705   87.1024   14.7666 C.3     1  UNL1        0.0021
     30 C          63.4074   88.9035   16.1488 C.3     1  UNL1        0.0021
@<TRIPOS>BOND
     1    16    17    1
     2    17     9    1
     3     9    10   ar
     4    10    11   ar
     5    11     1    1
     6     1     2    1
     7     2     3    1
     8     3     4   ar
     9     4     5   ar
    10     5    18    1
    11    18    19   ar
    12    19    20   ar
    13    20    21   ar
    14    21    22   ar
    15    22    24    1
    16    24    25    1
    17    24    26    2
    18    24    27    2
    19    22    23   ar
    20     5     6   ar
    21     6     7   ar
    22     7     8    1
    23     8    28    1
    24    28    29    1
    25    28    30    1
    26    11    12   ar
    27    12    13   ar
    28    13    14    1
    29    13    15   ar
    30    15     9   ar
    31     8     1    1
    32     7     3   ar
    33    23    18   ar
@<TRIPOS>MOLECULE
*****
 30 33 0 0 0
SMALL
GASTEIGER

@<TRIPOS>ATOM
      1 N          64.4137   88.9713   13.6824 N.pl3   1  UNL1       -0.2852
      2 C          64.9453   87.8485   14.5233 C.3     1  UNL1        0.1220
      3 C          64.2384   86.5897   14.1164 C.ar    1  UNL1        0.0337
      4 C          64.1300   85.1178   14.3846 C.ar    1  UNL1        0.0990
      5 N          63.0945   84.5529   13.4580 N.ar    1  UNL1       -0.2287
      6 N          62.5629   85.6756   12.6171 N.ar    1  UNL1       -0.1681
      7 C          63.2698   86.9344   13.0240 C.ar    1  UNL1        0.0960
      8 C          63.3782   88.4062   12.7558 C.3     1  UNL1        0.1160
      9 C          65.2761   92.6874   12.5890 C.ar    1  UNL1        0.2289
     10 C          64.8475   91.2519   12.5160 C.ar    1  UNL1        0.0920
     11 C          64.8423   90.4068   13.7554 C.ar    1  UNL1        0.1382
     12 N          65.2659   90.9973   15.0675 N.ar    1  UNL1       -0.2158
     13 C          65.6945   92.4330   15.1405 C.ar    1  UNL1        0.1441
     14 C          66.1180   93.0235   16.4527 C.3     1  UNL1        0.0738
     15 N          65.6996   93.2780   13.9012 N.ar    1  UNL1       -0.1966
     16 C          66.0623   94.8128   11.3182 C.3     1  UNL1        0.2542
     17 O          65.2812   93.5326   11.3497 O.3     1  UNL1       -0.4560
     18 C          62.6659   83.1173   13.3850 C.ar    1  UNL1        0.0841
     19 C          61.9159   82.4995   14.5278 C.ar    1  UNL1        0.0192
     20 C          61.4872   81.0639   14.4547 C.ar    1  UNL1        0.0029
     21 C          61.8086   80.2461   13.2391 C.ar    1  UNL1        0.0184
     22 C          62.5586   80.8638   12.0963 C.ar    1  UNL1        0.1072
     23 C          62.9872   82.2995   12.1694 C.ar    1  UNL1        0.0375
     24 S          62.8800   80.0461   10.8807 S.O2    1  UNL1        0.0105
     25 C          63.2014   79.2283    9.6650 C.3     1  UNL1        0.1816
     26 O          63.2751   81.2929   10.1463 O.2     1  UNL1       -0.1686
     27 O          62.4849   78.7992   11.6150 O.2     1  UNL1       -0.1686
     28 C          62.5895   89.1776   11.7395 C.3     1  UNL1        0.0240
     29 C          61.4781   90.0827   12.1820 C.3     1  UNL1        0.0021
     30 C          62.9121   89.0440   10.2808 C.3     1  UNL1        0.0021
@<TRIPOS>BOND
     1    16    17    1
     2    17     9    1
     3     9    10   ar
     4    10    11   ar
     5    11     1    1
     6     1     2    1
     7     2     3    1
     8     3     4   ar
     9     4     5   ar
    10     5    18    1
    11    18    19   ar
    12    19    20   ar
    13    20    21   ar
    14    21    22   ar
    15    22    24    1
    16    24    25    1
    17    24    26    2
    18    24    27    2
    19    22    23   ar
    20     5     6   ar
    21     6     7   ar
    22     7     8    1
    23     8    28    1
    24    28    29    1
    25    28    30    1
    26    11    12   ar
    27    12    13   ar
    28    13    14    1
    29    13    15   ar
    30    15     9   ar
    31     8     1    1
    32     7     3   ar
    33    23    18   ar
@<TRIPOS>MOLECULE
*****
 30 33 0 0 0
SMALL
GASTEIGER

@<TRIPOS>ATOM
      1 N          61.7461   86.1835   10.6177 N.pl3   1  UNL1       -0.2852
      2 C          60.8903   87.3843   10.8926 C.3     1  UNL1        0.1220
      3 C          60.5159   87.9980    9.5761 C.ar    1  UNL1        0.0337
      4 C          59.7556   89.1194    8.9325 C.ar    1  UNL1        0.0990
      5 N          59.9101   88.9909    7.4460 N.ar    1  UNL1       -0.2287
      6 N          60.7659   87.7901    7.1710 N.ar    1  UNL1       -0.1681
      7 C          61.1403   87.1764    8.4875 C.ar    1  UNL1        0.0960
      8 C          61.9006   86.0550    9.1311 C.3     1  UNL1        0.1160
      9 C          63.7240   84.9308   13.8221 C.ar    1  UNL1        0.2289
     10 C          63.1275   85.8430   12.7916 C.ar    1  UNL1        0.0920
     11 C          62.3427   85.2713   11.6482 C.ar    1  UNL1        0.1382
     12 N          62.1544   83.7875   11.5354 N.ar    1  UNL1       -0.2158
     13 C          62.7510   82.8752   12.5659 C.ar    1  UNL1        0.1441
     14 C          62.5627   81.3914   12.4532 C.3     1  UNL1        0.0738
     15 N          63.5358   83.4469   13.7093 N.ar    1  UNL1       -0.1966
     16 C          63.8436   85.7353   16.2896 C.3     1  UNL1        0.2542
     17 O          64.5089   85.5025   14.9655 O.3     1  UNL1       -0.4560
     18 C          59.3136   89.9031    6.4154 C.ar    1  UNL1        0.0841
     19 C          57.8246   90.0607    6.3252 C.ar    1  UNL1        0.0192
     20 C          57.2281   90.9729    5.2945 C.ar    1  UNL1        0.0029
     21 C          58.1205   91.7275    4.3542 C.ar    1  UNL1        0.0184
     22 C          59.6095   91.5699    4.4445 C.ar    1  UNL1        0.1072
     23 C          60.2060   90.6577    5.4751 C.ar    1  UNL1        0.0375
     24 S          60.5020   92.3245    3.5043 S.O2    1  UNL1        0.0105
     25 C          61.3945   93.0790    2.5640 C.3     1  UNL1        0.1816
     26 O          59.3060   93.0261    2.9320 O.2     1  UNL1       -0.1686
     27 O          61.6980   91.6228    4.0765 O.2     1  UNL1       -0.1686
     28 C          62.6788   84.9918    8.4142 C.3     1  UNL1        0.0240
     29 C          63.7358   84.2159    9.1430 C.3     1  UNL1        0.0021
     30 C          62.4002   84.7045    6.9687 C.3     1  UNL1        0.0021
@<TRIPOS>BOND
     1    16    17    1
     2    17     9    1
     3     9    10   ar
     4    10    11   ar
     5    11     1    1
     6     1     2    1
     7     2     3    1
     8     3     4   ar
     9     4     5   ar
    10     5    18    1
    11    18    19   ar
    12    19    20   ar
    13    20    21   ar
    14    21    22   ar
    15    22    24    1
    16    24    25    1
    17    24    26    2
    18    24    27    2
    19    22    23   ar
    20     5     6   ar
    21     6     7   ar
    22     7     8    1
    23     8    28    1
    24    28    29    1
    25    28    30    1
    26    11    12   ar
    27    12    13   ar
    28    13    14    1
    29    13    15   ar
    30    15     9   ar
    31     8     1    1
    32     7     3   ar
    33    23    18   ar
@<TRIPOS>MOLECULE
*****
 30 33 0 0 0
SMALL
GASTEIGER

@<TRIPOS>ATOM
      1 N          61.7412   86.4663   10.5647 N.pl3   1  UNL1       -0.2852
      2 C          61.1987   86.0213    9.2389 C.3     1  UNL1        0.1220
      3 C          60.7107   87.2359    8.5064 C.ar    1  UNL1        0.0337
      4 C          60.0738   87.7115    7.2344 C.ar    1  UNL1        0.0990
      5 N          59.9211   89.2012    7.3213 N.ar    1  UNL1       -0.2287
      6 N          60.4636   89.6462    8.6470 N.ar    1  UNL1       -0.1681
      7 C          60.9516   88.4316    9.3795 C.ar    1  UNL1        0.0960
      8 C          61.5885   87.9560   10.6516 C.3     1  UNL1        0.1160
      9 C          63.6195   85.2911   13.8572 C.ar    1  UNL1        0.2289
     10 C          63.0281   86.1797   12.8034 C.ar    1  UNL1        0.0920
     11 C          62.3326   85.5777   11.6185 C.ar    1  UNL1        0.1382
     12 N          62.2285   84.0871   11.4876 N.ar    1  UNL1       -0.2158
     13 C          62.8199   83.1984   12.5414 C.ar    1  UNL1        0.1441
     14 C          62.7158   81.7078   12.4105 C.3     1  UNL1        0.0738
     15 N          63.5154   83.8004   13.7263 N.ar    1  UNL1       -0.1966
     16 C          63.6413   85.9024   16.3823 C.3     1  UNL1        0.2542
     17 O          64.3150   85.8931   15.0422 O.3     1  UNL1       -0.4560
     18 C          59.3297   90.0898    6.2674 C.ar    1  UNL1        0.0841
     19 C          57.8413   90.2473    6.1679 C.ar    1  UNL1        0.0192
     20 C          57.2500   91.1360    5.1140 C.ar    1  UNL1        0.0029
     21 C          58.1470   91.8671    4.1597 C.ar    1  UNL1        0.0184
     22 C          59.6354   91.7096    4.2592 C.ar    1  UNL1        0.1072
     23 C          60.2267   90.8210    5.3131 C.ar    1  UNL1        0.0375
     24 S          60.5324   92.4407    3.3049 S.O2    1  UNL1        0.0105
     25 C          61.4296   93.1718    2.3506 C.3     1  UNL1        0.1816
     26 O          59.3330   93.0647    2.6552 O.2     1  UNL1       -0.1686
     27 O          61.7320   91.8167    3.9545 O.2     1  UNL1       -0.1686
     28 C          62.0003   88.8186   11.8076 C.3     1  UNL1        0.0240
     29 C          63.4506   88.9456   12.1693 C.3     1  UNL1        0.0021
     30 C          60.9621   89.5542   12.6018 C.3     1  UNL1        0.0021
@<TRIPOS>BOND
     1    16    17    1
     2    17     9    1
     3     9    10   ar
     4    10    11   ar
     5    11     1    1
     6     1     2    1
     7     2     3    1
     8     3     4   ar
     9     4     5   ar
    10     5    18    1
    11    18    19   ar
    12    19    20   ar
    13    20    21   ar
    14    21    22   ar
    15    22    24    1
    16    24    25    1
    17    24    26    2
    18    24    27    2
    19    22    23   ar
    20     5     6   ar
    21     6     7   ar
    22     7     8    1
    23     8    28    1
    24    28    29    1
    25    28    30    1
    26    11    12   ar
    27    12    13   ar
    28    13    14    1
    29    13    15   ar
    30    15     9   ar
    31     8     1    1
    32     7     3   ar
    33    23    18   ar
@<TRIPOS>MOLECULE
*****
 30 33 0 0 0
SMALL
GASTEIGER

@<TRIPOS>ATOM
      1 N          64.4920   89.0519   13.6062 N.pl3   1  UNL1       -0.2852
      2 C          64.9900   87.9444   14.4869 C.3     1  UNL1        0.1220
      3 C          64.2780   86.6839   14.0941 C.ar    1  UNL1        0.0337
      4 C          64.1457   85.2205   14.3956 C.ar    1  UNL1        0.0990
      5 N          63.1260   84.6445   13.4584 N.ar    1  UNL1       -0.2287
      6 N          62.6281   85.7519   12.5777 N.ar    1  UNL1       -0.1681
      7 C          63.3400   87.0124   12.9705 C.ar    1  UNL1        0.0960
      8 C          63.4723   88.4758   12.6689 C.3     1  UNL1        0.1160
      9 C          65.9206   92.4910   14.9775 C.ar    1  UNL1        0.2289
     10 C          65.4768   91.0591   14.9295 C.ar    1  UNL1        0.0920
     11 C          64.9359   90.4838   13.6541 C.ar    1  UNL1        0.1382
     12 N          64.8388   91.3406   12.4268 N.ar    1  UNL1       -0.2158
     13 C          65.2827   92.7727   12.4747 C.ar    1  UNL1        0.1441
     14 C          65.1857   93.6295   11.2474 C.3     1  UNL1        0.0738
     15 N          65.8236   93.3479   13.7501 N.ar    1  UNL1       -0.1966
     16 C          67.9385   93.2707   16.4164 C.3     1  UNL1        0.2542
     17 O          66.4615   93.0663   16.2529 O.3     1  UNL1       -0.4560
     18 C          62.6821   83.2125   13.4104 C.ar    1  UNL1        0.0841
     19 C          61.9334   82.6202   14.5674 C.ar    1  UNL1        0.0192
     20 C          61.4896   81.1881   14.5192 C.ar    1  UNL1        0.0029
     21 C          61.7944   80.3484   13.3143 C.ar    1  UNL1        0.0184
     22 C          62.5432   80.9407   12.1574 C.ar    1  UNL1        0.1072
     23 C          62.9870   82.3728   12.2055 C.ar    1  UNL1        0.0375
     24 S          62.8481   80.1011   10.9524 S.O2    1  UNL1        0.0105
     25 C          63.1531   79.2616    9.7473 C.3     1  UNL1        0.1816
     26 O          62.4478   78.8695   11.7092 O.2     1  UNL1       -0.1686
     27 O          63.2484   81.3329   10.1955 O.2     1  UNL1       -0.1686
     28 C          62.7174   89.2306   11.6152 C.3     1  UNL1        0.0240
     29 C          61.9569   90.4708   11.9808 C.3     1  UNL1        0.0021
     30 C          62.7229   88.7452   10.1959 C.3     1  UNL1        0.0021
@<TRIPOS>BOND
     1    16    17    1
     2    17     9    1
     3     9    10   ar
     4    10    11   ar
     5    11     1    1
     6     1     2    1
     7     2     3    1
     8     3     4   ar
     9     4     5   ar
    10     5    18    1
    11    18    19   ar
    12    19    20   ar
    13    20    21   ar
    14    21    22   ar
    15    22    24    1
    16    24    25    1
    17    24    26    2
    18    24    27    2
    19    22    23   ar
    20     5     6   ar
    21     6     7   ar
    22     7     8    1
    23     8    28    1
    24    28    29    1
    25    28    30    1
    26    11    12   ar
    27    12    13   ar
    28    13    14    1
    29    13    15   ar
    30    15     9   ar
    31     8     1    1
    32     7     3   ar
    33    23    18   ar
