@<TRIPOS>MOLECULE
*****
 32 35 0 0 0
SMALL
GASTEIGER

@<TRIPOS>ATOM
      1 C          63.9217   89.0859   15.0498 C.ar    1  UNL1        0.0957
      2 C          63.4101   89.4152   16.4208 C.ar    1  UNL1        0.1191
      3 N          62.9388   88.3183   17.3290 N.ar    1  UNL1       -0.2223
      4 C          62.9791   86.8921   16.8661 C.ar    1  UNL1        0.1784
      5 N          62.5843   85.6085   17.5343 N.ar    1  UNL1       -0.2236
      6 C          62.8520   84.4858   16.5762 C.ar    1  UNL1        0.1066
      7 C          63.4122   85.0756   15.3159 C.ar    1  UNL1        0.0910
      8 C          63.4907   86.5628   15.4951 C.ar    1  UNL1        0.0988
      9 N          63.9620   87.6596   14.5869 N.ar    1  UNL1       -0.3481
     10 H          64.2978   87.4435   13.6871 H       1  UNL1        0.1661
     11 C          66.5332   93.2696   13.1636 C.3     1  UNL1        0.1537
     12 N          65.5934   92.1058   13.2747 N.ar    1  UNL1       -0.2488
     13 N          65.4388   91.2080   14.4663 N.ar    1  UNL1       -0.1677
     14 C          64.3930   90.1828   14.1417 C.ar    1  UNL1        0.1194
     15 C          63.9013   90.4470   12.7494 C.ar    1  UNL1        0.0411
     16 C          62.8738   89.7590   11.9004 C.ar    1  UNL1        0.0402
     17 C          62.5883   90.2594   10.5155 C.ar    1  UNL1        0.1444
     18 C          63.3301   91.4479    9.9797 C.ar    1  UNL1        0.0386
     19 C          64.3576   92.1360   10.8287 C.ar    1  UNL1        0.0219
     20 C          64.6431   91.6355   12.2136 C.ar    1  UNL1        0.0796
     21 O          61.5608   89.5714    9.6664 O.3     1  UNL1       -0.4236
     22 C          61.4174   88.0794    9.7239 C.3     1  UNL1        0.5087
     23 F          62.4938   87.2002    9.1597 F       1  UNL1       -0.1550
     24 F          60.1977   87.4665   10.3458 F       1  UNL1       -0.1550
     25 C          63.8219   84.3122   14.0914 C.2     1  UNL1        0.2488
     26 O          65.2751   84.1665   13.7497 O.2     1  UNL1       -0.2700
     27 N          62.7783   83.6946   13.2085 N.am    1  UNL1       -0.3039
     28 H          61.8244   83.7902   13.4328 H       1  UNL1        0.1496
     29 C          63.1880   82.9312   11.9841 C.3     1  UNL1        0.0572
     30 C          63.3084   81.6808   12.8039 C.3     1  UNL1        0.0196
     31 C          63.0676   84.1816   11.1642 C.3     1  UNL1        0.0196
     32 C          63.5978   82.1677   10.7596 C.3     1  UNL1        0.0196
@<TRIPOS>BOND
     1    11    12    1
     2    12    13   ar
     3    13    14   ar
     4    14     1    1
     5     1     2   ar
     6     2     3   ar
     7     3     4   ar
     8     4     5   ar
     9     5     6   ar
    10     6     7   ar
    11     7    25    1
    12    25    26    2
    13    25    27   am
    14    27    29    1
    15    29    30    1
    16    29    31    1
    17    29    32    1
    18     7     8   ar
    19     8     9   ar
    20    14    15   ar
    21    15    16   ar
    22    16    17   ar
    23    17    21    1
    24    21    22    1
    25    22    23    1
    26    22    24    1
    27    17    18   ar
    28    18    19   ar
    29    19    20   ar
    30    20    12   ar
    31     9     1   ar
    32    20    15   ar
    33     8     4    1
    34    27    28    1
    35     9    10    1
@<TRIPOS>MOLECULE
*****
 32 35 0 0 0
SMALL
GASTEIGER

@<TRIPOS>ATOM
      1 C          62.4083   89.5581   11.7596 C.ar    1  UNL1        0.0957
      2 C          61.4654   90.3259   10.8814 C.ar    1  UNL1        0.1191
      3 N          60.7252   89.6242    9.7815 N.ar    1  UNL1       -0.2223
      4 C          60.9279   88.1546    9.5598 C.ar    1  UNL1        0.1784
      5 N          60.3414   87.1996    8.5629 N.ar    1  UNL1       -0.2236
      6 C          60.9218   85.8415    8.8249 C.ar    1  UNL1        0.1066
      7 C          61.8670   85.9571    9.9838 C.ar    1  UNL1        0.0910
      8 C          61.8708   87.3867   10.4381 C.ar    1  UNL1        0.0988
      9 N          62.6110   88.0884   11.5379 N.ar    1  UNL1       -0.3481
     10 H          63.2299   87.5844   12.1143 H       1  UNL1        0.1661
     11 C          63.9994   91.1043   16.5510 C.3     1  UNL1        0.1537
     12 N          63.8798   90.9705   15.0618 N.ar    1  UNL1       -0.2488
     13 N          62.9239   90.0750   14.3310 N.ar    1  UNL1       -0.1677
     14 C          63.1485   90.2598   12.8595 C.ar    1  UNL1        0.1194
     15 C          64.2433   91.2695   12.6808 C.ar    1  UNL1        0.0411
     16 C          64.8870   91.8457   11.4546 C.ar    1  UNL1        0.0402
     17 C          65.9827   92.8612   11.5896 C.ar    1  UNL1        0.1444
     18 C          66.4347   93.3004   12.9508 C.ar    1  UNL1        0.0386
     19 C          65.7910   92.7242   14.1770 C.ar    1  UNL1        0.0219
     20 C          64.6953   91.7088   14.0420 C.ar    1  UNL1        0.0796
     21 O          66.6264   93.4374   10.3634 O.3     1  UNL1       -0.4236
     22 C          67.7982   92.7432    9.7349 C.3     1  UNL1        0.5087
     23 F          68.1955   93.0691    8.3257 F       1  UNL1       -0.1550
     24 F          68.5727   91.7231   10.5157 F       1  UNL1       -0.1550
     25 C          62.6679   84.8394   10.5833 C.2     1  UNL1        0.2488
     26 O          63.6663   84.0982    9.7443 O.2     1  UNL1       -0.2700
     27 N          62.4704   84.4628   12.0218 N.am    1  UNL1       -0.3039
     28 H          61.8151   84.9492   12.5724 H       1  UNL1        0.1496
     29 C          63.2712   83.3451   12.6212 C.3     1  UNL1        0.0572
     30 C          62.3248   82.3465   12.0237 C.3     1  UNL1        0.0196
     31 C          64.2177   84.3437   13.2187 C.3     1  UNL1        0.0196
     32 C          64.0721   82.2273   13.2206 C.3     1  UNL1        0.0196
@<TRIPOS>BOND
     1    11    12    1
     2    12    13   ar
     3    13    14   ar
     4    14     1    1
     5     1     2   ar
     6     2     3   ar
     7     3     4   ar
     8     4     5   ar
     9     5     6   ar
    10     6     7   ar
    11     7    25    1
    12    25    26    2
    13    25    27   am
    14    27    29    1
    15    29    30    1
    16    29    31    1
    17    29    32    1
    18     7     8   ar
    19     8     9   ar
    20    14    15   ar
    21    15    16   ar
    22    16    17   ar
    23    17    21    1
    24    21    22    1
    25    22    23    1
    26    22    24    1
    27    17    18   ar
    28    18    19   ar
    29    19    20   ar
    30    20    12   ar
    31     9     1   ar
    32    20    15   ar
    33     8     4    1
    34    27    28    1
    35     9    10    1
@<TRIPOS>MOLECULE
*****
 32 35 0 0 0
SMALL
GASTEIGER

@<TRIPOS>ATOM
      1 C          63.4640   90.0736   12.4780 C.ar    1  UNL1        0.0957
      2 C          63.6012   89.7369   13.9332 C.ar    1  UNL1        0.1191
      3 N          64.4594   90.5873   14.8222 N.ar    1  UNL1       -0.2223
      4 C          65.1804   91.7745   14.2559 C.ar    1  UNL1        0.1784
      5 N          66.0900   92.7892   14.8827 N.ar    1  UNL1       -0.2236
      6 C          66.5149   93.7532   13.8150 C.ar    1  UNL1        0.1066
      7 C          65.8680   93.3341   12.5281 C.ar    1  UNL1        0.0910
      8 C          65.0433   92.1112   12.8007 C.ar    1  UNL1        0.0988
      9 N          64.1851   91.2608   11.9117 N.ar    1  UNL1       -0.3481
     10 H          64.0950   91.4818   10.9565 H       1  UNL1        0.1661
     11 C          59.9881   88.5697    8.7987 C.3     1  UNL1        0.1537
     12 N          61.0081   88.5319    9.8979 N.ar    1  UNL1       -0.2488
     13 N          61.6530   89.7224   10.5435 N.ar    1  UNL1       -0.1677
     14 C          62.6058   89.2231   11.5890 C.ar    1  UNL1        0.1194
     15 C          62.5496   87.7242   11.5895 C.ar    1  UNL1        0.0411
     16 C          63.2701   86.6931   12.4067 C.ar    1  UNL1        0.0402
     17 C          63.0031   85.2348   12.1786 C.ar    1  UNL1        0.1444
     18 C          62.0157   84.8076   11.1334 C.ar    1  UNL1        0.0386
     19 C          61.2952   85.8387   10.3162 C.ar    1  UNL1        0.0219
     20 C          61.5622   87.2970   10.5443 C.ar    1  UNL1        0.0796
     21 O          63.7235   84.2036   12.9958 O.3     1  UNL1       -0.4236
     22 C          64.2380   82.9549   12.3431 C.3     1  UNL1        0.5087
     23 F          64.9233   83.0325   11.0112 F       1  UNL1       -0.1550
     24 F          64.0670   81.6285   13.0226 F       1  UNL1       -0.1550
     25 C          66.0193   94.0179   11.2016 C.2     1  UNL1        0.2488
     26 O          65.0310   93.7538   10.1046 O.2     1  UNL1       -0.2700
     27 N          67.1590   94.9658   10.9722 N.am    1  UNL1       -0.3039
     28 H          67.8077   95.1392   11.6922 H       1  UNL1        0.1496
     29 C          67.3102   95.6496    9.6457 C.3     1  UNL1        0.0572
     30 C          68.0206   94.4441    9.1053 C.3     1  UNL1        0.0196
     31 C          66.5998   96.8552   10.1861 C.3     1  UNL1        0.0196
     32 C          67.4615   96.3334    8.3192 C.3     1  UNL1        0.0196
@<TRIPOS>BOND
     1    11    12    1
     2    12    13   ar
     3    13    14   ar
     4    14     1    1
     5     1     2   ar
     6     2     3   ar
     7     3     4   ar
     8     4     5   ar
     9     5     6   ar
    10     6     7   ar
    11     7    25    1
    12    25    26    2
    13    25    27   am
    14    27    29    1
    15    29    30    1
    16    29    31    1
    17    29    32    1
    18     7     8   ar
    19     8     9   ar
    20    14    15   ar
    21    15    16   ar
    22    16    17   ar
    23    17    21    1
    24    21    22    1
    25    22    23    1
    26    22    24    1
    27    17    18   ar
    28    18    19   ar
    29    19    20   ar
    30    20    12   ar
    31     9     1   ar
    32    20    15   ar
    33     8     4    1
    34    27    28    1
    35     9    10    1
@<TRIPOS>MOLECULE
*****
 32 35 0 0 0
SMALL
GASTEIGER

@<TRIPOS>ATOM
      1 C          63.5480   90.0275   12.6426 C.ar    1  UNL1        0.0957
      2 C          63.7026   89.7286   14.1043 C.ar    1  UNL1        0.1191
      3 N          64.5482   90.6184   14.9665 N.ar    1  UNL1       -0.2223
      4 C          65.2392   91.8071   14.3669 C.ar    1  UNL1        0.1784
      5 N          66.1307   92.8559   14.9628 N.ar    1  UNL1       -0.2236
      6 C          66.5271   93.8031   13.8693 C.ar    1  UNL1        0.1066
      7 C          65.8806   93.3396   12.5976 C.ar    1  UNL1        0.0910
      8 C          65.0846   92.1060   12.9052 C.ar    1  UNL1        0.0988
      9 N          64.2390   91.2163   12.0430 N.ar    1  UNL1       -0.3481
     10 H          64.1376   91.4125   11.0836 H       1  UNL1        0.1661
     11 C          60.0849   88.3613    9.0216 C.3     1  UNL1        0.1537
     12 N          61.1106   88.3719   10.1161 N.ar    1  UNL1       -0.2488
     13 N          61.7352   89.5910   10.7273 N.ar    1  UNL1       -0.1677
     14 C          62.7024   89.1378   11.7804 C.ar    1  UNL1        0.1194
     15 C          62.6755   87.6385   11.8201 C.ar    1  UNL1        0.0411
     16 C          63.4198   86.6432   12.6599 C.ar    1  UNL1        0.0402
     17 C          63.1803   85.1746   12.4711 C.ar    1  UNL1        0.1444
     18 C          62.1965   84.7013   11.4424 C.ar    1  UNL1        0.0386
     19 C          61.4523   85.6966   10.6026 C.ar    1  UNL1        0.0219
     20 C          61.6918   87.1652   10.7914 C.ar    1  UNL1        0.0796
     21 O          63.9246   84.1792   13.3110 O.3     1  UNL1       -0.4236
     22 C          64.7067   84.6410   14.5047 C.3     1  UNL1        0.5087
     23 F          63.9987   84.9563   15.7890 F       1  UNL1       -0.1550
     24 F          66.1968   84.7875   14.4142 F       1  UNL1       -0.1550
     25 C          66.0077   93.9948   11.2542 C.2     1  UNL1        0.2488
     26 O          65.0625   93.6284   10.1487 O.2     1  UNL1       -0.2700
     27 N          67.0801   95.0162   11.0164 N.am    1  UNL1       -0.3039
     28 H          67.7005   95.2567   11.7421 H       1  UNL1        0.1496
     29 C          67.2072   95.6713    9.6731 C.3     1  UNL1        0.0572
     30 C          66.4353   96.8546   10.1771 C.3     1  UNL1        0.0196
     31 C          67.9791   94.4880    9.1690 C.3     1  UNL1        0.0196
     32 C          67.3343   96.3265    8.3297 C.3     1  UNL1        0.0196
@<TRIPOS>BOND
     1    11    12    1
     2    12    13   ar
     3    13    14   ar
     4    14     1    1
     5     1     2   ar
     6     2     3   ar
     7     3     4   ar
     8     4     5   ar
     9     5     6   ar
    10     6     7   ar
    11     7    25    1
    12    25    26    2
    13    25    27   am
    14    27    29    1
    15    29    30    1
    16    29    31    1
    17    29    32    1
    18     7     8   ar
    19     8     9   ar
    20    14    15   ar
    21    15    16   ar
    22    16    17   ar
    23    17    21    1
    24    21    22    1
    25    22    23    1
    26    22    24    1
    27    17    18   ar
    28    18    19   ar
    29    19    20   ar
    30    20    12   ar
    31     9     1   ar
    32    20    15   ar
    33     8     4    1
    34    27    28    1
    35     9    10    1
@<TRIPOS>MOLECULE
*****
 32 35 0 0 0
SMALL
GASTEIGER

@<TRIPOS>ATOM
      1 C          63.7210   89.2809   14.6233 C.ar    1  UNL1        0.0957
      2 C          63.3837   89.7995   15.9897 C.ar    1  UNL1        0.1191
      3 N          63.1165   88.8399   17.1112 N.ar    1  UNL1       -0.2223
      4 C          63.1866   87.3617   16.8663 C.ar    1  UNL1        0.1784
      5 N          62.9742   86.1834   17.7698 N.ar    1  UNL1       -0.2236
      6 C          63.1802   84.9366   16.9619 C.ar    1  UNL1        0.1066
      7 C          63.5200   85.3443   15.5589 C.ar    1  UNL1        0.0910
      8 C          63.5240   86.8431   15.4999 C.ar    1  UNL1        0.0988
      9 N          63.7912   87.8027   14.3783 N.ar    1  UNL1       -0.3481
     10 H          64.0126   87.4623   13.4815 H       1  UNL1        0.1661
     11 C          63.5899   91.6605    9.9115 C.3     1  UNL1        0.1537
     12 N          63.9280   91.3343   11.3360 N.ar    1  UNL1       -0.2488
     13 N          63.3824   90.1850   12.1307 N.ar    1  UNL1       -0.1677
     14 C          63.9883   90.2405   13.5018 C.ar    1  UNL1        0.1194
     15 C          64.9083   91.4241   13.5544 C.ar    1  UNL1        0.0411
     16 C          65.7751   91.9736   14.6483 C.ar    1  UNL1        0.0402
     17 C          66.6047   93.1991   14.4036 C.ar    1  UNL1        0.1444
     18 C          66.5675   93.8750   13.0651 C.ar    1  UNL1        0.0386
     19 C          65.7006   93.3255   11.9712 C.ar    1  UNL1        0.0219
     20 C          64.8710   92.1000   12.2159 C.ar    1  UNL1        0.0796
     21 O          67.4716   93.7486   15.4975 O.3     1  UNL1       -0.4236
     22 C          68.9339   93.4164   15.5340 C.3     1  UNL1        0.5087
     23 F          69.4947   92.3947   14.5898 F       1  UNL1       -0.1550
     24 F          69.8354   94.1059   16.5149 F       1  UNL1       -0.1550
     25 C          63.8057   84.4161   14.4157 C.2     1  UNL1        0.2488
     26 O          65.2205   84.1808   13.9762 O.2     1  UNL1       -0.2700
     27 N          62.6767   83.7231   13.7120 N.am    1  UNL1       -0.3039
     28 H          61.7482   83.8775   14.0005 H       1  UNL1        0.1496
     29 C          62.9625   82.7950   12.5689 C.3     1  UNL1        0.0572
     30 C          63.0834   81.6492   13.5294 C.3     1  UNL1        0.0196
     31 C          62.8415   83.9408   11.6083 C.3     1  UNL1        0.0196
     32 C          63.2482   81.8668   11.4257 C.3     1  UNL1        0.0196
@<TRIPOS>BOND
     1    11    12    1
     2    12    13   ar
     3    13    14   ar
     4    14     1    1
     5     1     2   ar
     6     2     3   ar
     7     3     4   ar
     8     4     5   ar
     9     5     6   ar
    10     6     7   ar
    11     7    25    1
    12    25    26    2
    13    25    27   am
    14    27    29    1
    15    29    30    1
    16    29    31    1
    17    29    32    1
    18     7     8   ar
    19     8     9   ar
    20    14    15   ar
    21    15    16   ar
    22    16    17   ar
    23    17    21    1
    24    21    22    1
    25    22    23    1
    26    22    24    1
    27    17    18   ar
    28    18    19   ar
    29    19    20   ar
    30    20    12   ar
    31     9     1   ar
    32    20    15   ar
    33     8     4    1
    34    27    28    1
    35     9    10    1
@<TRIPOS>MOLECULE
*****
 32 35 0 0 0
SMALL
GASTEIGER

@<TRIPOS>ATOM
      1 C          63.7504   85.0249   14.2776 C.ar    1  UNL1        0.0957
      2 C          64.3910   83.7088   14.6048 C.ar    1  UNL1        0.1191
      3 N          64.6301   82.7006   13.5202 N.ar    1  UNL1       -0.2223
      4 C          64.2285   83.0087   12.1082 C.ar    1  UNL1        0.1784
      5 N          64.3373   82.2176   10.8384 N.ar    1  UNL1       -0.2236
      6 C          63.7638   83.0448    9.7263 C.ar    1  UNL1        0.1066
      7 C          63.3007   84.3472   10.3087 C.ar    1  UNL1        0.0910
      8 C          63.5879   84.3249   11.7808 C.ar    1  UNL1        0.0988
      9 N          63.3488   85.3330   12.8655 N.ar    1  UNL1       -0.3481
     10 H          62.9284   86.1969   12.6506 H       1  UNL1        0.1661
     11 C          62.5325   87.1999   18.9323 C.3     1  UNL1        0.1537
     12 N          62.9516   87.0328   17.5017 N.ar    1  UNL1       -0.2488
     13 N          63.0603   85.7330   16.7610 N.ar    1  UNL1       -0.1677
     14 C          63.5114   86.0331   15.3622 C.ar    1  UNL1        0.1194
     15 C          63.6815   87.5183   15.2385 C.ar    1  UNL1        0.0411
     16 C          64.1067   88.3878   14.0927 C.ar    1  UNL1        0.0402
     17 C          64.1859   89.8753   14.2692 C.ar    1  UNL1        0.1444
     18 C          63.8399   90.4931   15.5915 C.ar    1  UNL1        0.0386
     19 C          63.4147   89.6236   16.7373 C.ar    1  UNL1        0.0219
     20 C          63.3355   88.1361   16.5609 C.ar    1  UNL1        0.0796
     21 O          64.6111   90.7449   13.1233 O.3     1  UNL1       -0.4236
     22 C          63.6698   90.9961   11.9828 C.3     1  UNL1        0.5087
     23 F          64.1946   91.5180   10.6781 F       1  UNL1       -0.1550
     24 F          62.2035   90.7252   12.1469 F       1  UNL1       -0.1550
     25 C          62.6624   85.4741    9.5519 C.2     1  UNL1        0.2488
     26 O          63.2278   85.9057    8.2313 O.2     1  UNL1       -0.2700
     27 N          61.4588   86.1694   10.1158 N.am    1  UNL1       -0.3039
     28 H          61.0878   85.8861   10.9825 H       1  UNL1        0.1496
     29 C          60.8206   87.2963    9.3589 C.3     1  UNL1        0.0572
     30 C          60.0397   86.3074    8.5451 C.3     1  UNL1        0.0196
     31 C          61.6015   88.2852   10.1728 C.3     1  UNL1        0.0196
     32 C          60.1823   88.4231    8.6021 C.3     1  UNL1        0.0196
@<TRIPOS>BOND
     1    11    12    1
     2    12    13   ar
     3    13    14   ar
     4    14     1    1
     5     1     2   ar
     6     2     3   ar
     7     3     4   ar
     8     4     5   ar
     9     5     6   ar
    10     6     7   ar
    11     7    25    1
    12    25    26    2
    13    25    27   am
    14    27    29    1
    15    29    30    1
    16    29    31    1
    17    29    32    1
    18     7     8   ar
    19     8     9   ar
    20    14    15   ar
    21    15    16   ar
    22    16    17   ar
    23    17    21    1
    24    21    22    1
    25    22    23    1
    26    22    24    1
    27    17    18   ar
    28    18    19   ar
    29    19    20   ar
    30    20    12   ar
    31     9     1   ar
    32    20    15   ar
    33     8     4    1
    34    27    28    1
    35     9    10    1
@<TRIPOS>MOLECULE
*****
 32 35 0 0 0
SMALL
GASTEIGER

@<TRIPOS>ATOM
      1 C          63.8855   87.4720   14.6346 C.ar    1  UNL1        0.0957
      2 C          63.8380   87.1152   16.0907 C.ar    1  UNL1        0.1191
      3 N          63.4878   85.7181   16.5096 N.ar    1  UNL1       -0.2223
      4 C          63.1850   84.6777   15.4723 C.ar    1  UNL1        0.1784
      5 N          62.8118   83.2291   15.5827 N.ar    1  UNL1       -0.2236
      6 C          62.6286   82.6905   14.1949 C.ar    1  UNL1        0.1066
      7 C          62.8886   83.8063   13.2266 C.ar    1  UNL1        0.0910
      8 C          63.2325   85.0345   14.0161 C.ar    1  UNL1        0.0988
      9 N          63.5827   86.4315   13.5972 N.ar    1  UNL1       -0.3481
     10 H          63.6138   86.6657   12.6415 H       1  UNL1        0.1661
     11 C          65.9261   92.3418   14.6000 C.3     1  UNL1        0.1537
     12 N          65.1737   91.1074   14.1997 N.ar    1  UNL1       -0.2488
     13 N          65.0873   89.8335   14.9868 N.ar    1  UNL1       -0.1677
     14 C          64.2357   88.8691   14.2156 C.ar    1  UNL1        0.1194
     15 C          63.7958   89.5470   12.9519 C.ar    1  UNL1        0.0411
     16 C          62.9422   89.0833   11.8090 C.ar    1  UNL1        0.0402
     17 C          62.6684   90.0031   10.6562 C.ar    1  UNL1        0.1444
     18 C          63.2481   91.3865   10.6463 C.ar    1  UNL1        0.0386
     19 C          64.1016   91.8502   11.7893 C.ar    1  UNL1        0.0219
     20 C          64.3755   90.9304   12.9421 C.ar    1  UNL1        0.0796
     21 O          61.8148   89.5395    9.5131 O.3     1  UNL1       -0.4236
     22 C          60.3232   89.4896    9.6630 C.3     1  UNL1        0.5087
     23 F          59.6381   90.3878   10.6498 F       1  UNL1       -0.1550
     24 F          59.5166   88.5413    8.8261 F       1  UNL1       -0.1550
     25 C          62.8172   83.7107   11.7313 C.2     1  UNL1        0.2488
     26 O          62.5837   82.3822   11.0751 O.2     1  UNL1       -0.2700
     27 N          62.9794   84.9434   10.8924 N.am    1  UNL1       -0.3039
     28 H          63.1327   85.8154   11.3231 H       1  UNL1        0.1496
     29 C          62.9080   84.8478    9.3971 C.3     1  UNL1        0.0572
     30 C          61.8114   85.8711    9.3840 C.3     1  UNL1        0.0196
     31 C          64.0047   83.8244    9.4102 C.3     1  UNL1        0.0196
     32 C          62.8366   84.7521    7.9018 C.3     1  UNL1        0.0196
@<TRIPOS>BOND
     1    11    12    1
     2    12    13   ar
     3    13    14   ar
     4    14     1    1
     5     1     2   ar
     6     2     3   ar
     7     3     4   ar
     8     4     5   ar
     9     5     6   ar
    10     6     7   ar
    11     7    25    1
    12    25    26    2
    13    25    27   am
    14    27    29    1
    15    29    30    1
    16    29    31    1
    17    29    32    1
    18     7     8   ar
    19     8     9   ar
    20    14    15   ar
    21    15    16   ar
    22    16    17   ar
    23    17    21    1
    24    21    22    1
    25    22    23    1
    26    22    24    1
    27    17    18   ar
    28    18    19   ar
    29    19    20   ar
    30    20    12   ar
    31     9     1   ar
    32    20    15   ar
    33     8     4    1
    34    27    28    1
    35     9    10    1
@<TRIPOS>MOLECULE
*****
 32 35 0 0 0
SMALL
GASTEIGER

@<TRIPOS>ATOM
      1 C          63.1292   84.8726   14.0452 C.ar    1  UNL1        0.0957
      2 C          62.7330   83.8652   15.0833 C.ar    1  UNL1        0.1191
      3 N          62.5286   84.2947   16.5059 N.ar    1  UNL1       -0.2223
      4 C          62.7205   85.7318   16.8904 C.ar    1  UNL1        0.1784
      5 N          62.5913   86.4455   18.2034 N.ar    1  UNL1       -0.2236
      6 C          62.9076   87.8941   17.9768 C.ar    1  UNL1        0.1066
      7 C          63.2325   88.0757   16.5237 C.ar    1  UNL1        0.0910
      8 C          63.1168   86.7394   15.8523 C.ar    1  UNL1        0.0988
      9 N          63.3212   86.3099   14.4297 N.ar    1  UNL1       -0.3481
     10 H          63.5813   86.9712   13.7483 H       1  UNL1        0.1661
     11 C          64.6553   82.1347    9.7960 C.3     1  UNL1        0.1537
     12 N          64.0350   83.1846   10.6695 N.ar    1  UNL1       -0.2488
     13 N          64.0799   83.2238   12.1683 N.ar    1  UNL1       -0.1677
     14 C          63.3336   84.4431   12.6226 C.ar    1  UNL1        0.1194
     15 C          62.8275   85.1575   11.4046 C.ar    1  UNL1        0.0411
     16 C          62.0280   86.4157   11.2387 C.ar    1  UNL1        0.0402
     17 C          61.6620   86.8961    9.8657 C.ar    1  UNL1        0.1444
     18 C          62.0955   86.1183    8.6586 C.ar    1  UNL1        0.0386
     19 C          62.8950   84.8601    8.8245 C.ar    1  UNL1        0.0219
     20 C          63.2611   84.3797   10.1975 C.ar    1  UNL1        0.0796
     21 O          60.8624   88.1544    9.6998 O.3     1  UNL1       -0.4236
     22 C          61.4824   89.4838   10.0133 C.3     1  UNL1        0.5087
     23 F          62.9705   89.6547    9.9340 F       1  UNL1       -0.1550
     24 F          60.6143   90.6424   10.4060 F       1  UNL1       -0.1550
     25 C          63.6071   89.3671   15.8587 C.2     1  UNL1        0.2488
     26 O          63.2447   90.6737   16.5001 O.2     1  UNL1       -0.2700
     27 N          64.3442   89.3518   14.5524 N.am    1  UNL1       -0.3039
     28 H          64.5821   88.4942   14.1314 H       1  UNL1        0.1496
     29 C          64.7189   90.6431   13.8875 C.3     1  UNL1        0.0572
     30 C          65.9485   90.7266   14.7425 C.3     1  UNL1        0.0196
     31 C          63.4892   90.5597   13.0325 C.3     1  UNL1        0.0196
     32 C          65.0936   91.9345   13.2227 C.3     1  UNL1        0.0196
@<TRIPOS>BOND
     1    11    12    1
     2    12    13   ar
     3    13    14   ar
     4    14     1    1
     5     1     2   ar
     6     2     3   ar
     7     3     4   ar
     8     4     5   ar
     9     5     6   ar
    10     6     7   ar
    11     7    25    1
    12    25    26    2
    13    25    27   am
    14    27    29    1
    15    29    30    1
    16    29    31    1
    17    29    32    1
    18     7     8   ar
    19     8     9   ar
    20    14    15   ar
    21    15    16   ar
    22    16    17   ar
    23    17    21    1
    24    21    22    1
    25    22    23    1
    26    22    24    1
    27    17    18   ar
    28    18    19   ar
    29    19    20   ar
    30    20    12   ar
    31     9     1   ar
    32    20    15   ar
    33     8     4    1
    34    27    28    1
    35     9    10    1
@<TRIPOS>MOLECULE
*****
 32 35 0 0 0
SMALL
GASTEIGER

@<TRIPOS>ATOM
      1 C          62.3300   86.4735   11.2099 C.ar    1  UNL1        0.0957
      2 C          61.3363   86.8119   10.1386 C.ar    1  UNL1        0.1191
      3 N          61.0615   88.2463    9.7965 N.ar    1  UNL1       -0.2223
      4 C          61.7804   89.3423   10.5258 C.ar    1  UNL1        0.1784
      5 N          61.7172   90.8363   10.4074 N.ar    1  UNL1       -0.2236
      6 C          62.6718   91.4212   11.4056 C.ar    1  UNL1        0.1066
      7 C          63.3250   90.2887   12.1410 C.ar    1  UNL1        0.0910
      8 C          62.7741   89.0039   11.5973 C.ar    1  UNL1        0.0988
      9 N          63.0489   87.5695   11.9394 N.ar    1  UNL1       -0.3481
     10 H          63.7012   87.3474   12.6426 H       1  UNL1        0.1661
     11 C          63.4212   81.3261   10.7698 C.3     1  UNL1        0.1537
     12 N          63.1064   82.6731   11.3497 N.ar    1  UNL1       -0.2488
     13 N          62.8936   83.9392   10.5739 N.ar    1  UNL1       -0.1677
     14 C          62.6048   85.0391   11.5520 C.ar    1  UNL1        0.1194
     15 C          62.6391   84.4529   12.9323 C.ar    1  UNL1        0.0411
     16 C          62.4281   85.0617   14.2869 C.ar    1  UNL1        0.0402
     17 C          62.5270   84.2082   15.5163 C.ar    1  UNL1        0.1444
     18 C          62.8370   82.7459   15.3913 C.ar    1  UNL1        0.0386
     19 C          63.0480   82.1371   14.0368 C.ar    1  UNL1        0.0219
     20 C          62.9491   82.9906   12.8073 C.ar    1  UNL1        0.0796
     21 O          62.3160   84.8169   16.8710 O.3     1  UNL1       -0.4236
     22 C          62.9377   86.1409   17.2033 C.3     1  UNL1        0.5087
     23 F          63.7831   86.8489   16.1864 F       1  UNL1       -0.1550
     24 F          62.7141   86.7570   18.5526 F       1  UNL1       -0.1550
     25 C          64.3494   90.4184   13.2292 C.2     1  UNL1        0.2488
     26 O          64.6205   89.2622   14.1456 O.2     1  UNL1       -0.2700
     27 N          65.1026   91.7041   13.4008 N.am    1  UNL1       -0.3039
     28 H          64.9248   92.4629   12.7993 H       1  UNL1        0.1496
     29 C          66.1269   91.8337   14.4889 C.3     1  UNL1        0.0572
     30 C          67.2201   91.8154   13.4620 C.3     1  UNL1        0.0196
     31 C          65.0337   91.8519   15.5159 C.3     1  UNL1        0.0196
     32 C          67.1513   91.9633   15.5770 C.3     1  UNL1        0.0196
@<TRIPOS>BOND
     1    11    12    1
     2    12    13   ar
     3    13    14   ar
     4    14     1    1
     5     1     2   ar
     6     2     3   ar
     7     3     4   ar
     8     4     5   ar
     9     5     6   ar
    10     6     7   ar
    11     7    25    1
    12    25    26    2
    13    25    27   am
    14    27    29    1
    15    29    30    1
    16    29    31    1
    17    29    32    1
    18     7     8   ar
    19     8     9   ar
    20    14    15   ar
    21    15    16   ar
    22    16    17   ar
    23    17    21    1
    24    21    22    1
    25    22    23    1
    26    22    24    1
    27    17    18   ar
    28    18    19   ar
    29    19    20   ar
    30    20    12   ar
    31     9     1   ar
    32    20    15   ar
    33     8     4    1
    34    27    28    1
    35     9    10    1
