@<TRIPOS>MOLECULE
*****
 27 29 0 0 0
SMALL
GASTEIGER

@<TRIPOS>ATOM
      1 C          63.1390   88.3941   12.2084 C.ar    1  UNL1        0.0506
      2 C          63.8757   89.0721   13.3253 C.ar    1  UNL1        0.0160
      3 C          64.2578   90.5174   13.2030 C.ar    1  UNL1        0.0160
      4 C          63.9031   91.2847   11.9639 C.ar    1  UNL1        0.0507
      5 C          63.1663   90.6067   10.8470 C.ar    1  UNL1        0.0160
      6 C          62.7843   89.1614   10.9693 C.ar    1  UNL1        0.0160
      7 C          63.4036   86.0876   13.3748 C.2     1  UNL1        0.2496
      8 O          64.4324   86.6720   14.2969 O.2     1  UNL1       -0.2698
      9 N          62.7569   86.9486   12.3306 N.am    1  UNL1       -0.2804
     10 H          62.0817   86.5651   11.7254 H       1  UNL1        0.1552
     11 C          62.8630   82.2621   12.4676 C.ar    1  UNL1        0.1389
     12 C          62.2575   81.7515   13.7414 C.ar    1  UNL1        0.0369
     13 C          62.0341   82.6863   14.8930 C.ar    1  UNL1        0.0033
     14 C          62.4161   84.1316   14.7708 C.ar    1  UNL1        0.0047
     15 C          63.0216   84.6422   13.4970 C.ar    1  UNL1        0.0567
     16 C          63.2450   83.7075   12.3454 C.ar    1  UNL1        0.0414
     17 C          63.8903   81.7753   10.1314 C.3     1  UNL1        0.2525
     18 O          63.0865   81.3274   11.3159 O.3     1  UNL1       -0.4714
     19 N          64.2851   92.7302   11.8417 N.am    1  UNL1       -0.2779
     20 C          65.5603   93.1130   11.1509 C.2     1  UNL1        0.2842
     21 O          66.4536   92.0505   10.5824 O.2     1  UNL1       -0.2665
     22 H          63.6989   93.4275   12.2148 H       1  UNL1        0.1553
     23 C          65.9423   94.5584   11.0287 C.ar    1  UNL1        0.1988
     24 C          66.2301   95.2893    9.7509 C.ar    1  UNL1        0.0455
     25 C          66.5693   96.7094   10.0954 C.ar    1  UNL1        0.0440
     26 C          66.4911   96.8560   11.5862 C.ar    1  UNL1        0.1798
     27 O          66.1037   95.5267   12.1630 O.2     1  UNL1       -0.4458
@<TRIPOS>BOND
     1    17    18    1
     2    18    11    1
     3    11    12   ar
     4    12    13   ar
     5    13    14   ar
     6    14    15   ar
     7    15     7    1
     8     7     8    2
     9     7     9   am
    10     9     1    1
    11     1     2   ar
    12     2     3   ar
    13     3     4   ar
    14     4    19    1
    15    19    20   am
    16    20    21    2
    17    20    23    1
    18    23    24   ar
    19    24    25   ar
    20    25    26   ar
    21    26    27   ar
    22     4     5   ar
    23     5     6   ar
    24    15    16   ar
    25    16    11   ar
    26     6     1   ar
    27    27    23   ar
    28     9    10    1
    29    19    22    1
@<TRIPOS>MOLECULE
*****
 27 29 0 0 0
SMALL
GASTEIGER

@<TRIPOS>ATOM
      1 C          71.5607   78.0000   12.4814 C.ar    1  UNL1        0.0506
      2 C          71.3135   76.5993   12.0054 C.ar    1  UNL1        0.0160
      3 C          71.4323   75.4501   12.9621 C.ar    1  UNL1        0.0160
      4 C          71.7983   75.7018   14.3949 C.ar    1  UNL1        0.0507
      5 C          72.0455   77.1026   14.8708 C.ar    1  UNL1        0.0160
      6 C          71.9267   78.2517   13.9141 C.ar    1  UNL1        0.0160
      7 C          72.4408   79.3093   10.4171 C.2     1  UNL1        0.2496
      8 O          73.5583   78.3202   10.2661 O.2     1  UNL1       -0.2698
      9 N          71.4420   79.1492   11.5246 N.am    1  UNL1       -0.2804
     10 H          70.7085   79.7984   11.6237 H       1  UNL1        0.1552
     11 C          71.8619   81.3538    7.0651 C.ar    1  UNL1        0.1389
     12 C          72.0845   82.7568    7.5468 C.ar    1  UNL1        0.0369
     13 C          72.4258   83.0106    8.9853 C.ar    1  UNL1        0.0033
     14 C          72.5446   81.8615    9.9420 C.ar    1  UNL1        0.0047
     15 C          72.3220   80.4585    9.4603 C.ar    1  UNL1        0.0567
     16 C          71.9807   80.2047    8.0219 C.ar    1  UNL1        0.0414
     17 C          70.7398   79.8772    5.2457 C.3     1  UNL1        0.2525
     18 O          71.5206   81.0999    5.6267 O.3     1  UNL1       -0.4714
     19 N          71.9170   74.5526   15.3516 N.am    1  UNL1       -0.2779
     20 C          70.6848   73.9585   15.9669 C.2     1  UNL1        0.2842
     21 O          69.3337   74.5136   15.6254 O.2     1  UNL1       -0.2665
     22 H          72.8037   74.1883   15.5757 H       1  UNL1        0.1553
     23 C          70.8036   72.8094   16.9236 C.ar    1  UNL1        0.1988
     24 C          71.1901   71.4039   16.5697 C.ar    1  UNL1        0.0455
     25 C          71.1821   70.5898   17.8296 C.ar    1  UNL1        0.0440
     26 C          70.7906   71.4922   18.9621 C.ar    1  UNL1        0.1798
     27 O          70.5567   72.8639   18.4022 O.2     1  UNL1       -0.4458
@<TRIPOS>BOND
     1    17    18    1
     2    18    11    1
     3    11    12   ar
     4    12    13   ar
     5    13    14   ar
     6    14    15   ar
     7    15     7    1
     8     7     8    2
     9     7     9   am
    10     9     1    1
    11     1     2   ar
    12     2     3   ar
    13     3     4   ar
    14     4    19    1
    15    19    20   am
    16    20    21    2
    17    20    23    1
    18    23    24   ar
    19    24    25   ar
    20    25    26   ar
    21    26    27   ar
    22     4     5   ar
    23     5     6   ar
    24    15    16   ar
    25    16    11   ar
    26     6     1   ar
    27    27    23   ar
    28     9    10    1
    29    19    22    1
@<TRIPOS>MOLECULE
*****
 27 29 0 0 0
SMALL
GASTEIGER

@<TRIPOS>ATOM
      1 C          60.8217   88.6716    9.2144 C.ar    1  UNL1        0.0506
      2 C          60.1071   87.3554    9.2976 C.ar    1  UNL1        0.0160
      3 C          60.5348   86.3324   10.3077 C.ar    1  UNL1        0.0160
      4 C          61.6771   86.6256   11.2347 C.ar    1  UNL1        0.0507
      5 C          62.3917   87.9417   11.1514 C.ar    1  UNL1        0.0160
      6 C          61.9640   88.9648   10.1413 C.ar    1  UNL1        0.0160
      7 C          59.6963   89.2629    6.9486 C.2     1  UNL1        0.2496
      8 O          59.4262   87.8080    6.7030 O.2     1  UNL1       -0.2698
      9 N          60.3941   89.6947    8.2042 N.am    1  UNL1       -0.2804
     10 H          60.5713   90.6496    8.3653 H       1  UNL1        0.1552
     11 C          59.8653   91.9858    4.0662 C.ar    1  UNL1        0.1389
     12 C          58.4134   92.3322    3.9181 C.ar    1  UNL1        0.0369
     13 C          57.3891   91.6555    4.7801 C.ar    1  UNL1        0.0033
     14 C          57.8168   90.6325    5.7902 C.ar    1  UNL1        0.0047
     15 C          59.2686   90.2860    5.9384 C.ar    1  UNL1        0.0567
     16 C          60.2929   90.9627    5.0764 C.ar    1  UNL1        0.0414
     17 C          60.4528   93.5629    2.0870 C.3     1  UNL1        0.2525
     18 O          60.8896   92.6624    3.2043 O.3     1  UNL1       -0.4714
     19 N          62.1048   85.6024   12.2448 N.am    1  UNL1       -0.2779
     20 C          62.8685   84.3884   11.8057 C.2     1  UNL1        0.2842
     21 O          63.2046   84.1975   10.3563 O.2     1  UNL1       -0.2665
     22 H          61.8842   85.7278   13.1961 H       1  UNL1        0.1553
     23 C          63.2961   83.3654   12.8158 C.ar    1  UNL1        0.1988
     24 C          63.4139   81.8888   12.5797 C.ar    1  UNL1        0.0455
     25 C          63.8717   81.2501   13.8575 C.ar    1  UNL1        0.0440
     26 C          64.0368   82.3321   14.8833 C.ar    1  UNL1        0.1798
     27 O          63.6811   83.6393   14.2395 O.2     1  UNL1       -0.4458
@<TRIPOS>BOND
     1    17    18    1
     2    18    11    1
     3    11    12   ar
     4    12    13   ar
     5    13    14   ar
     6    14    15   ar
     7    15     7    1
     8     7     8    2
     9     7     9   am
    10     9     1    1
    11     1     2   ar
    12     2     3   ar
    13     3     4   ar
    14     4    19    1
    15    19    20   am
    16    20    21    2
    17    20    23    1
    18    23    24   ar
    19    24    25   ar
    20    25    26   ar
    21    26    27   ar
    22     4     5   ar
    23     5     6   ar
    24    15    16   ar
    25    16    11   ar
    26     6     1   ar
    27    27    23   ar
    28     9    10    1
    29    19    22    1
@<TRIPOS>MOLECULE
*****
 27 29 0 0 0
SMALL
GASTEIGER

@<TRIPOS>ATOM
      1 C          61.8191   87.4529   11.2778 C.ar    1  UNL1        0.0506
      2 C          62.5095   88.7424   10.9453 C.ar    1  UNL1        0.0160
      3 C          61.9452   89.6443    9.8879 C.ar    1  UNL1        0.0160
      4 C          60.6906   89.2567    9.1630 C.ar    1  UNL1        0.0507
      5 C          60.0002   87.9672    9.4954 C.ar    1  UNL1        0.0160
      6 C          60.5644   87.0654   10.5528 C.ar    1  UNL1        0.0160
      7 C          62.8090   85.1565   11.9827 C.2     1  UNL1        0.2496
      8 O          62.6703   84.6640   10.5726 O.2     1  UNL1       -0.2698
      9 N          62.3834   86.5510   12.3352 N.am    1  UNL1       -0.2804
     10 H          62.4744   86.8742   13.2607 H       1  UNL1        0.1552
     11 C          63.6422   81.8823   14.0648 C.ar    1  UNL1        0.1389
     12 C          64.5017   82.4507   15.1549 C.ar    1  UNL1        0.0369
     13 C          64.7969   83.9210   15.1875 C.ar    1  UNL1        0.0033
     14 C          64.2327   84.8229   14.1302 C.ar    1  UNL1        0.0047
     15 C          63.3732   84.2546   13.0401 C.ar    1  UNL1        0.0567
     16 C          63.0780   82.7843   13.0074 C.ar    1  UNL1        0.0414
     17 C          62.1542   79.9031   13.2784 C.3     1  UNL1        0.2525
     18 O          63.3470   80.4120   14.0321 O.3     1  UNL1       -0.4714
     19 N          60.1263   90.1587    8.1055 N.am    1  UNL1       -0.2779
     20 C          59.3239   89.5814    6.9774 C.2     1  UNL1        0.2842
     21 O          59.0858   88.1021    6.9065 O.2     1  UNL1       -0.2665
     22 H          60.2826   91.1296    8.1520 H       1  UNL1        0.1553
     23 C          58.7597   90.4833    5.9200 C.ar    1  UNL1        0.1988
     24 C          59.5523   91.2951    4.9387 C.ar    1  UNL1        0.0455
     25 C          58.5862   92.0454    4.0704 C.ar    1  UNL1        0.0440
     26 C          57.1965   91.6973    4.5151 C.ar    1  UNL1        0.1798
     27 O          57.3037   90.7319    5.6581 O.2     1  UNL1       -0.4458
@<TRIPOS>BOND
     1    17    18    1
     2    18    11    1
     3    11    12   ar
     4    12    13   ar
     5    13    14   ar
     6    14    15   ar
     7    15     7    1
     8     7     8    2
     9     7     9   am
    10     9     1    1
    11     1     2   ar
    12     2     3   ar
    13     3     4   ar
    14     4    19    1
    15    19    20   am
    16    20    21    2
    17    20    23    1
    18    23    24   ar
    19    24    25   ar
    20    25    26   ar
    21    26    27   ar
    22     4     5   ar
    23     5     6   ar
    24    15    16   ar
    25    16    11   ar
    26     6     1   ar
    27    27    23   ar
    28     9    10    1
    29    19    22    1
@<TRIPOS>MOLECULE
*****
 27 29 0 0 0
SMALL
GASTEIGER

@<TRIPOS>ATOM
      1 C          63.0026   90.2727   11.0579 C.ar    1  UNL1        0.0506
      2 C          63.1361   89.7467   12.4563 C.ar    1  UNL1        0.0160
      3 C          64.0721   90.4117   13.4215 C.ar    1  UNL1        0.0160
      4 C          64.8746   91.6027   12.9883 C.ar    1  UNL1        0.0507
      5 C          64.7411   92.1286   11.5900 C.ar    1  UNL1        0.0160
      6 C          63.8051   91.4636   10.6248 C.ar    1  UNL1        0.0160
      7 C          61.9256   88.1143   10.0927 C.2     1  UNL1        0.2496
      8 O          62.7205   87.2859   11.0581 O.2     1  UNL1       -0.2698
      9 N          62.0666   89.6076   10.0926 N.am    1  UNL1       -0.2804
     10 H          61.5449   90.1513    9.4590 H       1  UNL1        0.1552
     11 C          60.5178   85.6059    7.3585 C.ar    1  UNL1        0.1389
     12 C          59.1177   86.1193    7.1969 C.ar    1  UNL1        0.0369
     13 C          58.6536   87.2977    8.0006 C.ar    1  UNL1        0.0033
     14 C          59.5895   87.9627    8.9658 C.ar    1  UNL1        0.0047
     15 C          60.9896   87.4493    9.1274 C.ar    1  UNL1        0.0567
     16 C          61.4537   86.2709    8.3238 C.ar    1  UNL1        0.0414
     17 C          62.3472   84.4341    5.9336 C.3     1  UNL1        0.2525
     18 O          60.9819   84.4274    6.5549 O.3     1  UNL1       -0.4714
     19 N          65.8106   92.2677   13.9536 N.am    1  UNL1       -0.2779
     20 C          67.2808   92.3161   13.6602 C.2     1  UNL1        0.2842
     21 O          67.8150   91.6995   12.4015 O.2     1  UNL1       -0.2665
     22 H          65.4599   92.6724   14.7798 H       1  UNL1        0.1553
     23 C          68.2167   92.9811   14.6255 C.ar    1  UNL1        0.1988
     24 C          67.8194   93.7569   15.8463 C.ar    1  UNL1        0.0455
     25 C          69.0715   94.2424   16.5148 C.ar    1  UNL1        0.0440
     26 C          70.2426   93.7666   15.7071 C.ar    1  UNL1        0.1798
     27 O          69.7143   92.9871   14.5394 O.2     1  UNL1       -0.4458
@<TRIPOS>BOND
     1    17    18    1
     2    18    11    1
     3    11    12   ar
     4    12    13   ar
     5    13    14   ar
     6    14    15   ar
     7    15     7    1
     8     7     8    2
     9     7     9   am
    10     9     1    1
    11     1     2   ar
    12     2     3   ar
    13     3     4   ar
    14     4    19    1
    15    19    20   am
    16    20    21    2
    17    20    23    1
    18    23    24   ar
    19    24    25   ar
    20    25    26   ar
    21    26    27   ar
    22     4     5   ar
    23     5     6   ar
    24    15    16   ar
    25    16    11   ar
    26     6     1   ar
    27    27    23   ar
    28     9    10    1
    29    19    22    1
@<TRIPOS>MOLECULE
*****
 27 29 0 0 0
SMALL
GASTEIGER

@<TRIPOS>ATOM
      1 C          63.0791   90.6795   11.2478 C.ar    1  UNL1        0.0506
      2 C          62.9768   90.2569   12.6834 C.ar    1  UNL1        0.0160
      3 C          63.9110   90.8362   13.7041 C.ar    1  UNL1        0.0160
      4 C          64.9474   91.8380   13.2891 C.ar    1  UNL1        0.0507
      5 C          65.0496   92.2606   11.8536 C.ar    1  UNL1        0.0160
      6 C          64.1155   91.6814   10.8329 C.ar    1  UNL1        0.0160
      7 C          61.8768   88.6246   10.2077 C.2     1  UNL1        0.2496
      8 O          62.5429   87.7281   11.2090 O.2     1  UNL1       -0.2698
      9 N          62.1449   90.1003   10.2271 N.am    1  UNL1       -0.2804
     10 H          61.7077   90.6887    9.5699 H       1  UNL1        0.1552
     11 C          59.1553   88.3734    7.3301 C.ar    1  UNL1        0.1389
     12 C          59.0743   86.8870    7.1456 C.ar    1  UNL1        0.0369
     13 C          59.9274   85.9798    7.9818 C.ar    1  UNL1        0.0033
     14 C          60.8616   86.5590    9.0025 C.ar    1  UNL1        0.0047
     15 C          60.9426   88.0453    9.1870 C.ar    1  UNL1        0.0567
     16 C          60.0895   88.9525    8.3508 C.ar    1  UNL1        0.0414
     17 C          58.9349   90.3879    5.7044 C.3     1  UNL1        0.2525
     18 O          58.3022   89.2805    6.4939 O.3     1  UNL1       -0.4714
     19 N          65.8816   92.4173   14.3099 N.am    1  UNL1       -0.2779
     20 C          67.3562   92.4596   14.0384 C.2     1  UNL1        0.2842
     21 O          67.8967   91.9227   12.7463 O.2     1  UNL1       -0.2665
     22 H          65.5269   92.7697   15.1579 H       1  UNL1        0.1553
     23 C          68.2903   93.0388   15.0592 C.ar    1  UNL1        0.1988
     24 C          69.1225   92.2607   16.0349 C.ar    1  UNL1        0.0455
     25 C          69.9028   93.2389   16.8622 C.ar    1  UNL1        0.0440
     26 C          69.5528   94.6217   16.3977 C.ar    1  UNL1        0.1798
     27 O          68.5563   94.4980   15.2834 O.2     1  UNL1       -0.4458
@<TRIPOS>BOND
     1    17    18    1
     2    18    11    1
     3    11    12   ar
     4    12    13   ar
     5    13    14   ar
     6    14    15   ar
     7    15     7    1
     8     7     8    2
     9     7     9   am
    10     9     1    1
    11     1     2   ar
    12     2     3   ar
    13     3     4   ar
    14     4    19    1
    15    19    20   am
    16    20    21    2
    17    20    23    1
    18    23    24   ar
    19    24    25   ar
    20    25    26   ar
    21    26    27   ar
    22     4     5   ar
    23     5     6   ar
    24    15    16   ar
    25    16    11   ar
    26     6     1   ar
    27    27    23   ar
    28     9    10    1
    29    19    22    1
@<TRIPOS>MOLECULE
*****
 27 29 0 0 0
SMALL
GASTEIGER

@<TRIPOS>ATOM
      1 C          58.3263   94.8245   -0.9448 C.ar    1  UNL1        0.0506
      2 C          58.0437   96.1567   -1.5735 C.ar    1  UNL1        0.0160
      3 C          56.7548   96.3814   -2.3071 C.ar    1  UNL1        0.0160
      4 C          55.7485   95.2740   -2.4119 C.ar    1  UNL1        0.0507
      5 C          56.0311   93.9418   -1.7832 C.ar    1  UNL1        0.0160
      6 C          57.3200   93.7170   -1.0496 C.ar    1  UNL1        0.0160
      7 C          60.7637   93.9260   -0.9019 C.2     1  UNL1        0.2496
      8 O          60.6233   93.4771   -2.3262 O.2     1  UNL1       -0.2698
      9 N          59.6153   94.5997   -0.2112 N.am    1  UNL1       -0.2804
     10 H          59.7075   94.8943    0.7237 H       1  UNL1        0.1552
     11 C          63.3355   92.7907    1.8994 C.ar    1  UNL1        0.1389
     12 C          64.6304   93.2515    1.2989 C.ar    1  UNL1        0.0369
     13 C          64.6365   93.9372   -0.0352 C.ar    1  UNL1        0.0033
     14 C          63.3477   94.1620   -0.7688 C.ar    1  UNL1        0.0047
     15 C          62.0527   93.7012   -0.1683 C.ar    1  UNL1        0.0567
     16 C          62.0466   93.0155    1.1658 C.ar    1  UNL1        0.0414
     17 C          63.5701   90.6270    3.3183 C.3     1  UNL1        0.2525
     18 O          63.3294   92.1051    3.2336 O.3     1  UNL1       -0.4714
     19 N          54.4595   95.4988   -3.1455 N.am    1  UNL1       -0.2779
     20 C          53.2927   96.1217   -2.4381 C.2     1  UNL1        0.2842
     21 O          53.4148   96.5199   -0.9971 O.2     1  UNL1       -0.2665
     22 H          54.3794   95.2374   -4.0913 H       1  UNL1        0.1553
     23 C          52.0039   96.3465   -3.1717 C.ar    1  UNL1        0.1988
     24 C          51.8196   96.3161   -4.6601 C.ar    1  UNL1        0.0455
     25 C          50.3747   96.5920   -4.9540 C.ar    1  UNL1        0.0440
     26 C          49.6660   96.7929   -3.6473 C.ar    1  UNL1        0.1798
     27 O          50.6729   96.6412   -2.5458 O.2     1  UNL1       -0.4458
@<TRIPOS>BOND
     1    17    18    1
     2    18    11    1
     3    11    12   ar
     4    12    13   ar
     5    13    14   ar
     6    14    15   ar
     7    15     7    1
     8     7     8    2
     9     7     9   am
    10     9     1    1
    11     1     2   ar
    12     2     3   ar
    13     3     4   ar
    14     4    19    1
    15    19    20   am
    16    20    21    2
    17    20    23    1
    18    23    24   ar
    19    24    25   ar
    20    25    26   ar
    21    26    27   ar
    22     4     5   ar
    23     5     6   ar
    24    15    16   ar
    25    16    11   ar
    26     6     1   ar
    27    27    23   ar
    28     9    10    1
    29    19    22    1
@<TRIPOS>MOLECULE
*****
 27 29 0 0 0
SMALL
GASTEIGER

@<TRIPOS>ATOM
      1 C          61.2851   86.6924   10.7001 C.ar    1  UNL1        0.0506
      2 C          61.8449   88.0743   10.8644 C.ar    1  UNL1        0.0160
      3 C          61.4517   89.1613    9.9086 C.ar    1  UNL1        0.0160
      4 C          60.4987   88.8665    8.7884 C.ar    1  UNL1        0.0507
      5 C          59.9388   87.4847    8.6241 C.ar    1  UNL1        0.0160
      6 C          60.3320   86.3976    9.5799 C.ar    1  UNL1        0.0160
      7 C          62.5492   84.4763   11.1906 C.2     1  UNL1        0.2496
      8 O          63.0270   84.4342    9.7693 O.2     1  UNL1       -0.2698
      9 N          61.6783   85.6053   11.6560 N.am    1  UNL1       -0.2804
     10 H          61.3647   85.6329   12.5888 H       1  UNL1        0.1552
     11 C          63.8007   82.6512   14.4850 C.ar    1  UNL1        0.1389
     12 C          63.7288   81.2151   14.0582 C.ar    1  UNL1        0.0369
     13 C          63.2637   80.8659   12.6756 C.ar    1  UNL1        0.0033
     14 C          62.8705   81.9530   11.7197 C.ar    1  UNL1        0.0047
     15 C          62.9424   83.3891   12.1465 C.ar    1  UNL1        0.0567
     16 C          63.4075   83.7383   13.5291 C.ar    1  UNL1        0.0414
     17 C          64.0826   84.3941   16.3910 C.3     1  UNL1        0.2525
     18 O          64.2659   83.0004   15.8677 O.3     1  UNL1       -0.4714
     19 N          60.1055   89.9536    7.8325 N.am    1  UNL1       -0.2779
     20 C          59.4148   89.6081    6.5466 C.2     1  UNL1        0.2842
     21 O          59.1172   88.1754    6.2166 O.2     1  UNL1       -0.2665
     22 H          60.3007   90.8939    8.0491 H       1  UNL1        0.1553
     23 C          59.0216   90.6951    5.5908 C.ar    1  UNL1        0.1988
     24 C          57.6195   91.0861    5.2285 C.ar    1  UNL1        0.0455
     25 C          57.6929   92.2148    4.2432 C.ar    1  UNL1        0.0440
     26 C          59.1404   92.5214    3.9966 C.ar    1  UNL1        0.1798
     27 O          59.9616   91.5823    4.8295 O.2     1  UNL1       -0.4458
@<TRIPOS>BOND
     1    17    18    1
     2    18    11    1
     3    11    12   ar
     4    12    13   ar
     5    13    14   ar
     6    14    15   ar
     7    15     7    1
     8     7     8    2
     9     7     9   am
    10     9     1    1
    11     1     2   ar
    12     2     3   ar
    13     3     4   ar
    14     4    19    1
    15    19    20   am
    16    20    21    2
    17    20    23    1
    18    23    24   ar
    19    24    25   ar
    20    25    26   ar
    21    26    27   ar
    22     4     5   ar
    23     5     6   ar
    24    15    16   ar
    25    16    11   ar
    26     6     1   ar
    27    27    23   ar
    28     9    10    1
    29    19    22    1
@<TRIPOS>MOLECULE
*****
 27 29 0 0 0
SMALL
GASTEIGER

@<TRIPOS>ATOM
      1 C          59.4118   94.1289   -2.9115 C.ar    1  UNL1        0.0506
      2 C          59.2499   95.4648   -3.5742 C.ar    1  UNL1        0.0160
      3 C          57.9803   95.7915   -4.3030 C.ar    1  UNL1        0.0160
      4 C          56.8724   94.7824   -4.3690 C.ar    1  UNL1        0.0507
      5 C          57.0343   93.4465   -3.7063 C.ar    1  UNL1        0.0160
      6 C          58.3039   93.1198   -2.9775 C.ar    1  UNL1        0.0160
      7 C          60.8791   94.2728   -0.7722 C.2     1  UNL1        0.2496
      8 O          59.8070   95.0703   -0.0905 O.2     1  UNL1       -0.2698
      9 N          60.6815   93.8022   -2.1827 N.am    1  UNL1       -0.2804
     10 H          61.3851   93.2788   -2.6301 H       1  UNL1        0.1552
     11 C          63.3670   92.8608    1.9785 C.ar    1  UNL1        0.1389
     12 C          64.6881   93.2925    1.4142 C.ar    1  UNL1        0.0369
     13 C          64.7395   94.0510    0.1212 C.ar    1  UNL1        0.0033
     14 C          63.4699   94.3778   -0.6077 C.ar    1  UNL1        0.0047
     15 C          62.1488   93.9461   -0.0434 C.ar    1  UNL1        0.0567
     16 C          62.0974   93.1875    1.2497 C.ar    1  UNL1        0.0414
     17 C          63.4713   90.6104    3.2726 C.3     1  UNL1        0.2525
     18 O          63.3156   92.1023    3.2715 O.3     1  UNL1       -0.4714
     19 N          55.6027   95.1091   -5.0978 N.am    1  UNL1       -0.2779
     20 C          54.4359   95.6841   -4.3509 C.2     1  UNL1        0.2842
     21 O          54.5387   95.9323   -2.8752 O.2     1  UNL1       -0.2665
     22 H          55.5352   94.9462   -6.0664 H       1  UNL1        0.1553
     23 C          53.1663   96.0109   -5.0797 C.ar    1  UNL1        0.1988
     24 C          51.8502   96.3547   -4.4475 C.ar    1  UNL1        0.0455
     25 C          50.8603   96.6075   -5.5459 C.ar    1  UNL1        0.0440
     26 C          51.5646   96.4198   -6.8569 C.ar    1  UNL1        0.1798
     27 O          52.9898   96.0511   -6.5688 O.2     1  UNL1       -0.4458
@<TRIPOS>BOND
     1    17    18    1
     2    18    11    1
     3    11    12   ar
     4    12    13   ar
     5    13    14   ar
     6    14    15   ar
     7    15     7    1
     8     7     8    2
     9     7     9   am
    10     9     1    1
    11     1     2   ar
    12     2     3   ar
    13     3     4   ar
    14     4    19    1
    15    19    20   am
    16    20    21    2
    17    20    23    1
    18    23    24   ar
    19    24    25   ar
    20    25    26   ar
    21    26    27   ar
    22     4     5   ar
    23     5     6   ar
    24    15    16   ar
    25    16    11   ar
    26     6     1   ar
    27    27    23   ar
    28     9    10    1
    29    19    22    1
