@<TRIPOS>MOLECULE
*****
 32 35 0 0 0
SMALL
GASTEIGER

@<TRIPOS>ATOM
      1 C          63.7677   90.1216   13.3363 C.ar    1  UNL1        0.1042
      2 C          64.7615   91.2384   13.2134 C.ar    1  UNL1        0.0335
      3 C          64.9127   91.9680   11.9115 C.ar    1  UNL1        0.1261
      4 C          64.0700   91.5808   10.7326 C.ar    1  UNL1        0.0234
      5 C          63.0762   90.4641   10.8554 C.ar    1  UNL1        0.0396
      6 C          62.9250   89.7345   12.1573 C.ar    1  UNL1        0.1549
      7 S          65.9066   93.0847   11.7887 S.O2    1  UNL1        0.0751
      8 O          66.1352   92.7231   10.3510 O.2     1  UNL1       -0.1499
      9 O          65.6780   93.4464   13.2263 O.2     1  UNL1       -0.1499
     10 N          66.9005   94.2015   11.6658 N.pl3   1  UNL1       -0.1925
     11 H          67.5848   94.3302   12.3618 H       1  UNL1        0.1758
     12 C          66.8518   95.1220   10.4824 C.ar    1  UNL1        0.1977
     13 N          67.8349   95.1549    9.3500 N.ar    1  UNL1       -0.1997
     14 C          67.4022   96.2245    8.3914 C.ar    1  UNL1        0.2082
     15 N          66.1517   96.8526    8.9315 N.ar    1  UNL1       -0.1840
     16 S          65.8115   96.1712   10.2238 S.2     1  UNL1        0.0508
     17 N          63.4653   88.6624   15.9400 N.1     1  UNL1       -0.1907
     18 C          63.6165   89.3920   14.6381 C.1     1  UNL1        0.1035
     19 O          61.9311   88.6177   12.2801 O.3     1  UNL1       -0.4528
     20 C          61.3601   87.9829   11.0469 C.ar    1  UNL1        0.1467
     21 C          60.5264   88.7964   10.1019 C.ar    1  UNL1        0.0384
     22 C          59.9553   88.1615    8.8686 C.ar    1  UNL1        0.0145
     23 C          60.2180   86.7131    8.5804 C.ar    1  UNL1        0.0579
     24 CL         59.6470   86.0783    7.3472 Cl      1  UNL1       -0.0822
     25 C          61.0518   85.8996    9.5254 C.ar    1  UNL1        0.0159
     26 C          61.6228   86.5344   10.7587 C.ar    1  UNL1        0.0524
     27 C          62.4565   85.7209   11.7037 C.ar    1  UNL1        0.0784
     28 C          62.7792   84.2627   11.5632 C.ar    1  UNL1        0.0410
     29 C          63.6360   83.8633   12.7278 C.ar    1  UNL1        0.1214
     30 N          63.8430   85.0746   13.5880 N.ar    1  UNL1       -0.1711
     31 N          63.1140   86.2226   12.9551 N.ar    1  UNL1       -0.2756
     32 H          63.0740   87.1437   13.3004 H       1  UNL1        0.1889
@<TRIPOS>BOND
     1    17    18    3
     2    18     1    1
     3     1     2   ar
     4     2     3   ar
     5     3     7    1
     6     7     8    2
     7     7     9    2
     8     7    10    1
     9    10    12    1
    10    12    13   ar
    11    13    14   ar
    12    14    15   ar
    13    15    16   ar
    14     3     4   ar
    15     4     5   ar
    16     5     6   ar
    17     6    19    1
    18    19    20    1
    19    20    21   ar
    20    21    22   ar
    21    22    23   ar
    22    23    24    1
    23    23    25   ar
    24    25    26   ar
    25    26    27    1
    26    27    28   ar
    27    28    29   ar
    28    29    30   ar
    29    30    31   ar
    30     6     1   ar
    31    26    20   ar
    32    31    27   ar
    33    16    12   ar
    34    10    11    1
    35    31    32    1
@<TRIPOS>MOLECULE
*****
 32 35 0 0 0
SMALL
GASTEIGER

@<TRIPOS>ATOM
      1 C          62.3526   89.4017   10.8796 C.ar    1  UNL1        0.1042
      2 C          63.0855   90.7099   10.8453 C.ar    1  UNL1        0.0335
      3 C          64.0617   91.0514   11.9318 C.ar    1  UNL1        0.1261
      4 C          64.3051   90.0846   13.0525 C.ar    1  UNL1        0.0234
      5 C          63.5722   88.7763   13.0867 C.ar    1  UNL1        0.0396
      6 C          62.5959   88.4348   12.0002 C.ar    1  UNL1        0.1549
      7 S          64.7946   92.3598   11.8975 S.O2    1  UNL1        0.0751
      8 O          64.5183   92.4760   10.4278 O.2     1  UNL1       -0.1499
      9 O          65.0710   92.2435   13.3672 O.2     1  UNL1       -0.1499
     10 N          65.5275   93.6681   11.8632 N.pl3   1  UNL1       -0.1925
     11 H          65.3322   94.3595   12.5363 H       1  UNL1        0.1758
     12 C          66.5579   93.9230   10.8033 C.ar    1  UNL1        0.1977
     13 N          67.6244   92.9649   10.3620 N.ar    1  UNL1       -0.1997
     14 C          68.4284   93.6305    9.2846 C.ar    1  UNL1        0.2082
     15 N          67.8587   94.9998    9.0600 N.ar    1  UNL1       -0.1840
     16 S          66.7027   95.1806    9.9986 S.2     1  UNL1        0.0508
     17 N          60.4001   88.7188    8.7067 N.1     1  UNL1       -0.1907
     18 C          61.3764   89.0602    9.7931 C.1     1  UNL1        0.1035
     19 O          61.8630   87.1265   12.0345 O.3     1  UNL1       -0.4528
     20 C          62.5139   85.8879   11.4940 C.ar    1  UNL1        0.1467
     21 C          62.5493   85.6439   10.0144 C.ar    1  UNL1        0.0384
     22 C          63.2002   84.4052    9.4739 C.ar    1  UNL1        0.0145
     23 C          63.8156   83.4105   10.4130 C.ar    1  UNL1        0.0579
     24 CL         64.4664   82.1719    9.8725 Cl      1  UNL1       -0.0822
     25 C          63.7802   83.6545   11.8926 C.ar    1  UNL1        0.0159
     26 C          63.1293   84.8931   12.4331 C.ar    1  UNL1        0.0524
     27 C          63.0939   85.1371   13.9127 C.ar    1  UNL1        0.0784
     28 C          64.1790   85.7773   14.7270 C.ar    1  UNL1        0.0410
     29 C          63.7229   85.8196   16.1554 C.ar    1  UNL1        0.1214
     30 N          62.3560   85.2056   16.2239 N.ar    1  UNL1       -0.1711
     31 N          61.9673   84.7839   14.8379 N.ar    1  UNL1       -0.2756
     32 H          61.1212   84.3512   14.5805 H       1  UNL1        0.1889
@<TRIPOS>BOND
     1    17    18    3
     2    18     1    1
     3     1     2   ar
     4     2     3   ar
     5     3     7    1
     6     7     8    2
     7     7     9    2
     8     7    10    1
     9    10    12    1
    10    12    13   ar
    11    13    14   ar
    12    14    15   ar
    13    15    16   ar
    14     3     4   ar
    15     4     5   ar
    16     5     6   ar
    17     6    19    1
    18    19    20    1
    19    20    21   ar
    20    21    22   ar
    21    22    23   ar
    22    23    24    1
    23    23    25   ar
    24    25    26   ar
    25    26    27    1
    26    27    28   ar
    27    28    29   ar
    28    29    30   ar
    29    30    31   ar
    30     6     1   ar
    31    26    20   ar
    32    31    27   ar
    33    16    12   ar
    34    10    11    1
    35    31    32    1
@<TRIPOS>MOLECULE
*****
 32 35 0 0 0
SMALL
GASTEIGER

@<TRIPOS>ATOM
      1 C          62.3873   89.7062   10.8067 C.ar    1  UNL1        0.1042
      2 C          63.1528   90.9956   10.8453 C.ar    1  UNL1        0.0335
      3 C          64.1533   91.2414   11.9355 C.ar    1  UNL1        0.1261
      4 C          64.3885   90.1979   12.9870 C.ar    1  UNL1        0.0234
      5 C          63.6230   88.9085   12.9483 C.ar    1  UNL1        0.0396
      6 C          62.6224   88.6627   11.8582 C.ar    1  UNL1        0.1549
      7 S          64.9188   92.5309   11.9740 S.O2    1  UNL1        0.0751
      8 O          65.1578   92.3450   13.4431 O.2     1  UNL1       -0.1499
      9 O          64.6799   92.7168   10.5050 O.2     1  UNL1       -0.1499
     10 N          65.6843   93.8203   12.0127 N.pl3   1  UNL1       -0.1925
     11 H          65.5882   94.4269   12.7821 H       1  UNL1        0.1758
     12 C          66.5962   94.1854   10.8790 C.ar    1  UNL1        0.1977
     13 N          67.6100   93.2848   10.2379 N.ar    1  UNL1       -0.1997
     14 C          68.2948   94.0580    9.1500 C.ar    1  UNL1        0.2082
     15 N          67.7041   95.4365    9.1189 N.ar    1  UNL1       -0.1840
     16 S          66.6543   95.5152   10.1875 S.2     1  UNL1        0.0508
     17 N          60.3862   89.2146    8.6264 N.1     1  UNL1       -0.1907
     18 C          61.3867   89.4604    9.7165 C.1     1  UNL1        0.1035
     19 O          61.8569   87.3733   11.8196 O.3     1  UNL1       -0.4528
     20 C          62.5807   86.0669   11.9590 C.ar    1  UNL1        0.1467
     21 C          63.2884   85.7345   13.2391 C.ar    1  UNL1        0.0384
     22 C          64.0123   84.4280   13.3784 C.ar    1  UNL1        0.0145
     23 C          64.0284   83.4541   12.2377 C.ar    1  UNL1        0.0579
     24 CL         64.7522   82.1477   12.3772 Cl      1  UNL1       -0.0822
     25 C          63.3207   83.7866   10.9577 C.ar    1  UNL1        0.0159
     26 C          62.5969   85.0929   10.8183 C.ar    1  UNL1        0.0524
     27 C          61.8891   85.4254    9.5382 C.ar    1  UNL1        0.0784
     28 C          62.3915   85.1414    8.1535 C.ar    1  UNL1        0.0410
     29 C          61.3676   85.6407    7.1776 C.ar    1  UNL1        0.1214
     30 N          60.2325   86.2332    7.9590 N.ar    1  UNL1       -0.1711
     31 N          60.5549   86.1001    9.4179 N.ar    1  UNL1       -0.2756
     32 H          59.9899   86.4024   10.1653 H       1  UNL1        0.1889
@<TRIPOS>BOND
     1    17    18    3
     2    18     1    1
     3     1     2   ar
     4     2     3   ar
     5     3     7    1
     6     7     8    2
     7     7     9    2
     8     7    10    1
     9    10    12    1
    10    12    13   ar
    11    13    14   ar
    12    14    15   ar
    13    15    16   ar
    14     3     4   ar
    15     4     5   ar
    16     5     6   ar
    17     6    19    1
    18    19    20    1
    19    20    21   ar
    20    21    22   ar
    21    22    23   ar
    22    23    24    1
    23    23    25   ar
    24    25    26   ar
    25    26    27    1
    26    27    28   ar
    27    28    29   ar
    28    29    30   ar
    29    30    31   ar
    30     6     1   ar
    31    26    20   ar
    32    31    27   ar
    33    16    12   ar
    34    10    11    1
    35    31    32    1
@<TRIPOS>MOLECULE
*****
 32 35 0 0 0
SMALL
GASTEIGER

@<TRIPOS>ATOM
      1 C          63.8905   89.4089   13.4237 C.ar    1  UNL1        0.1042
      2 C          64.5990   90.7306   13.4543 C.ar    1  UNL1        0.0335
      3 C          64.6212   91.5982   12.2309 C.ar    1  UNL1        0.1261
      4 C          63.9348   91.1440   10.9768 C.ar    1  UNL1        0.0234
      5 C          63.2263   89.8223   10.9462 C.ar    1  UNL1        0.0396
      6 C          63.2042   88.9547   12.1697 C.ar    1  UNL1        0.1549
      7 S          65.3297   92.9200   12.2615 S.O2    1  UNL1        0.0751
      8 O          65.6654   92.7065   13.7077 O.2     1  UNL1       -0.1499
      9 O          64.9941   93.1335   10.8152 O.2     1  UNL1       -0.1499
     10 N          66.0383   94.2417   12.2922 N.pl3   1  UNL1       -0.1925
     11 H          66.1225   94.7355   13.1397 H       1  UNL1        0.1758
     12 C          66.6185   94.8111   11.0315 C.ar    1  UNL1        0.1977
     13 N          67.5295   94.0955   10.0786 N.ar    1  UNL1       -0.1997
     14 C          67.8637   95.0382    8.9606 C.ar    1  UNL1        0.2082
     15 N          67.1592   96.3363    9.2227 N.ar    1  UNL1       -0.1840
     16 S          66.3897   96.1959   10.5026 S.2     1  UNL1        0.0508
     17 N          63.8462   87.6737   15.8706 N.1     1  UNL1       -0.1907
     18 C          63.8683   88.5413   14.6471 C.1     1  UNL1        0.1035
     19 O          62.4956   87.6329   12.1391 O.3     1  UNL1       -0.4528
     20 C          61.9614   87.0982   10.8434 C.ar    1  UNL1        0.1467
     21 C          62.7155   86.0330   10.1039 C.ar    1  UNL1        0.0384
     22 C          62.1812   85.4982    8.8082 C.ar    1  UNL1        0.0145
     23 C          60.8931   86.0286    8.2521 C.ar    1  UNL1        0.0579
     24 CL         60.3589   85.4938    6.9565 Cl      1  UNL1       -0.0822
     25 C          60.1391   87.0938    8.9917 C.ar    1  UNL1        0.0159
     26 C          60.6732   87.6285   10.2873 C.ar    1  UNL1        0.0524
     27 C          59.9192   88.6937   11.0268 C.ar    1  UNL1        0.0784
     28 C          59.7830   90.1283   10.6101 C.ar    1  UNL1        0.0410
     29 C          58.9486   90.8325   11.6387 C.ar    1  UNL1        0.1214
     30 N          58.5691   89.8332   12.6911 N.ar    1  UNL1       -0.1711
     31 N          59.1690   88.5114   12.3129 N.ar    1  UNL1       -0.2756
     32 H          59.0851   87.6716   12.8198 H       1  UNL1        0.1889
@<TRIPOS>BOND
     1    17    18    3
     2    18     1    1
     3     1     2   ar
     4     2     3   ar
     5     3     7    1
     6     7     8    2
     7     7     9    2
     8     7    10    1
     9    10    12    1
    10    12    13   ar
    11    13    14   ar
    12    14    15   ar
    13    15    16   ar
    14     3     4   ar
    15     4     5   ar
    16     5     6   ar
    17     6    19    1
    18    19    20    1
    19    20    21   ar
    20    21    22   ar
    21    22    23   ar
    22    23    24    1
    23    23    25   ar
    24    25    26   ar
    25    26    27    1
    26    27    28   ar
    27    28    29   ar
    28    29    30   ar
    29    30    31   ar
    30     6     1   ar
    31    26    20   ar
    32    31    27   ar
    33    16    12   ar
    34    10    11    1
    35    31    32    1
@<TRIPOS>MOLECULE
*****
 32 35 0 0 0
SMALL
GASTEIGER

@<TRIPOS>ATOM
      1 C          62.0189   88.1776   10.9271 C.ar    1  UNL1        0.1042
      2 C          61.1476   88.7317    9.8391 C.ar    1  UNL1        0.0335
      3 C          60.3870   87.8020    8.9406 C.ar    1  UNL1        0.1261
      4 C          60.4978   86.3182    9.1302 C.ar    1  UNL1        0.0234
      5 C          61.3691   85.7641   10.2181 C.ar    1  UNL1        0.0396
      6 C          62.1296   86.6937   11.1166 C.ar    1  UNL1        0.1549
      7 S          59.5157   88.3562    7.8526 S.O2    1  UNL1        0.0751
      8 O          59.7779   89.7465    8.3509 O.2     1  UNL1       -0.1499
      9 O          59.2536   86.9659    7.3543 O.2     1  UNL1       -0.1499
     10 N          58.6444   88.9104    6.7647 N.pl3   1  UNL1       -0.1925
     11 H          57.7530   88.5250    6.6036 H       1  UNL1        0.1758
     12 C          59.1314   90.0520    5.9221 C.ar    1  UNL1        0.1977
     13 N          60.5446   90.2748    5.4713 N.ar    1  UNL1       -0.1997
     14 C          60.5773   91.5316    4.6530 C.ar    1  UNL1        0.2082
     15 N          59.1843   92.0855    4.5982 N.ar    1  UNL1       -0.1840
     16 S          58.2907   91.1710    5.3826 S.2     1  UNL1        0.0508
     17 N          63.5400   90.0369   12.7240 N.1     1  UNL1       -0.1907
     18 C          62.7795   89.1073   11.8255 C.1     1  UNL1        0.1035
     19 O          63.0010   86.1395   12.2046 O.3     1  UNL1       -0.4528
     20 C          62.9357   84.6808   12.5479 C.ar    1  UNL1        0.1467
     21 C          62.8584   83.6559   11.4554 C.ar    1  UNL1        0.0384
     22 C          62.7930   82.1972   11.7988 C.ar    1  UNL1        0.0145
     23 C          62.8050   81.7634   13.2346 C.ar    1  UNL1        0.0579
     24 CL         62.7397   80.3047   13.5779 Cl      1  UNL1       -0.0822
     25 C          62.8823   82.7883   14.3271 C.ar    1  UNL1        0.0159
     26 C          62.9476   84.2470   13.9838 C.ar    1  UNL1        0.0524
     27 C          63.0249   85.2719   15.0763 C.ar    1  UNL1        0.0784
     28 C          62.4691   85.1271   16.4621 C.ar    1  UNL1        0.0410
     29 C          62.7723   86.3873   17.2171 C.ar    1  UNL1        0.1214
     30 N          63.5154   87.3109   16.2980 N.ar    1  UNL1       -0.1711
     31 N          63.6715   86.6216   14.9750 N.ar    1  UNL1       -0.2756
     32 H          64.1196   86.9903   14.1797 H       1  UNL1        0.1889
@<TRIPOS>BOND
     1    17    18    3
     2    18     1    1
     3     1     2   ar
     4     2     3   ar
     5     3     7    1
     6     7     8    2
     7     7     9    2
     8     7    10    1
     9    10    12    1
    10    12    13   ar
    11    13    14   ar
    12    14    15   ar
    13    15    16   ar
    14     3     4   ar
    15     4     5   ar
    16     5     6   ar
    17     6    19    1
    18    19    20    1
    19    20    21   ar
    20    21    22   ar
    21    22    23   ar
    22    23    24    1
    23    23    25   ar
    24    25    26   ar
    25    26    27    1
    26    27    28   ar
    27    28    29   ar
    28    29    30   ar
    29    30    31   ar
    30     6     1   ar
    31    26    20   ar
    32    31    27   ar
    33    16    12   ar
    34    10    11    1
    35    31    32    1
@<TRIPOS>MOLECULE
*****
 32 35 0 0 0
SMALL
GASTEIGER

@<TRIPOS>ATOM
      1 C          62.4625   89.2932   11.2014 C.ar    1  UNL1        0.1042
      2 C          63.2402   90.5543   11.4354 C.ar    1  UNL1        0.0335
      3 C          64.1729   90.6540   12.6059 C.ar    1  UNL1        0.1261
      4 C          64.3278   89.4927   13.5425 C.ar    1  UNL1        0.0234
      5 C          63.5501   88.2316   13.3085 C.ar    1  UNL1        0.0396
      6 C          62.6174   88.1319   12.1380 C.ar    1  UNL1        0.1549
      7 S          64.9506   91.9152   12.8399 S.O2    1  UNL1        0.0751
      8 O          64.6971   91.7981   14.3136 O.2     1  UNL1       -0.1499
      9 O          65.2041   92.0322   11.3661 O.2     1  UNL1       -0.1499
     10 N          65.7283   93.1763   13.0739 N.pl3   1  UNL1       -0.1925
     11 H          65.4180   94.0254   12.6841 H       1  UNL1        0.1758
     12 C          66.9788   93.1436   13.9017 C.ar    1  UNL1        0.1977
     13 N          67.2463   93.9655   15.1276 N.ar    1  UNL1       -0.1997
     14 C          68.6142   93.6132   15.6325 C.ar    1  UNL1        0.2082
     15 N          69.1920   92.5735   14.7185 N.ar    1  UNL1       -0.1840
     16 S          68.1813   92.2833   13.6489 S.2     1  UNL1        0.0508
     17 N          60.5971   89.0938    8.8603 N.1     1  UNL1       -0.1907
     18 C          61.5298   89.1935   10.0309 C.1     1  UNL1        0.1035
     19 O          61.8397   86.8707   11.9040 O.3     1  UNL1       -0.4528
     20 C          62.5276   85.6563   11.3545 C.ar    1  UNL1        0.1467
     21 C          62.5845   85.4328    9.8724 C.ar    1  UNL1        0.0384
     22 C          63.2725   84.2184    9.3229 C.ar    1  UNL1        0.0145
     23 C          63.9035   83.2275   10.2555 C.ar    1  UNL1        0.0579
     24 CL         64.5915   82.0131    9.7060 Cl      1  UNL1       -0.0822
     25 C          63.8466   83.4510   11.7377 C.ar    1  UNL1        0.0159
     26 C          63.1587   84.6654   12.2872 C.ar    1  UNL1        0.0524
     27 C          63.1018   84.8889   13.7694 C.ar    1  UNL1        0.0784
     28 C          64.2511   85.2923   14.6449 C.ar    1  UNL1        0.0410
     29 C          63.7452   85.4009   16.0529 C.ar    1  UNL1        0.1214
     30 N          62.2834   85.0647   16.0475 N.ar    1  UNL1       -0.1711
     31 N          61.8858   84.7483   14.6362 N.ar    1  UNL1       -0.2756
     32 H          60.9848   84.4931   14.3322 H       1  UNL1        0.1889
@<TRIPOS>BOND
     1    17    18    3
     2    18     1    1
     3     1     2   ar
     4     2     3   ar
     5     3     7    1
     6     7     8    2
     7     7     9    2
     8     7    10    1
     9    10    12    1
    10    12    13   ar
    11    13    14   ar
    12    14    15   ar
    13    15    16   ar
    14     3     4   ar
    15     4     5   ar
    16     5     6   ar
    17     6    19    1
    18    19    20    1
    19    20    21   ar
    20    21    22   ar
    21    22    23   ar
    22    23    24    1
    23    23    25   ar
    24    25    26   ar
    25    26    27    1
    26    27    28   ar
    27    28    29   ar
    28    29    30   ar
    29    30    31   ar
    30     6     1   ar
    31    26    20   ar
    32    31    27   ar
    33    16    12   ar
    34    10    11    1
    35    31    32    1
@<TRIPOS>MOLECULE
*****
 32 35 0 0 0
SMALL
GASTEIGER

@<TRIPOS>ATOM
      1 C          63.3514   90.7432   11.3719 C.ar    1  UNL1        0.1042
      2 C          64.2240   91.9251   11.0692 C.ar    1  UNL1        0.0335
      3 C          65.2456   92.3789   12.0694 C.ar    1  UNL1        0.1261
      4 C          65.3946   91.6508   13.3723 C.ar    1  UNL1        0.0234
      5 C          64.5221   90.4689   13.6750 C.ar    1  UNL1        0.0396
      6 C          63.5004   90.0151   12.6748 C.ar    1  UNL1        0.1549
      7 S          66.1182   93.5609   11.7665 S.O2    1  UNL1        0.0751
      8 O          67.0602   93.1447   12.8570 O.2     1  UNL1       -0.1499
      9 O          65.1761   93.9770   10.6760 O.2     1  UNL1       -0.1499
     10 N          66.9907   94.7428   11.4638 N.pl3   1  UNL1       -0.1925
     11 H          67.5544   95.1324   12.1707 H       1  UNL1        0.1758
     12 C          67.0045   95.3310   10.0840 C.ar    1  UNL1        0.1977
     13 N          66.4740   96.6791    9.6951 N.ar    1  UNL1       -0.1997
     14 C          66.6928   96.8558    8.2216 C.ar    1  UNL1        0.2082
     15 N          67.3584   95.6169    7.7000 N.ar    1  UNL1       -0.1840
     16 S          67.5510   94.6746    8.8510 S.2     1  UNL1        0.0508
     17 N          61.3082   89.8355    9.3716 N.1     1  UNL1       -0.1907
     18 C          62.3298   90.2893   10.3718 C.1     1  UNL1        0.1035
     19 O          62.6279   88.8331   12.9777 O.3     1  UNL1       -0.4528
     20 C          63.2480   87.5047   13.2948 C.ar    1  UNL1        0.1467
     21 C          64.1786   87.3713   14.4636 C.ar    1  UNL1        0.0384
     22 C          64.7988   86.0428   14.7808 C.ar    1  UNL1        0.0145
     23 C          64.4884   84.8478   13.9290 C.ar    1  UNL1        0.0579
     24 CL         65.1086   83.5193   14.2462 Cl      1  UNL1       -0.0822
     25 C          63.5578   84.9812   12.7602 C.ar    1  UNL1        0.0159
     26 C          62.9376   86.3096   12.4430 C.ar    1  UNL1        0.0524
     27 C          62.0071   86.4430   11.2742 C.ar    1  UNL1        0.0784
     28 C          62.2494   85.9184    9.8899 C.ar    1  UNL1        0.0410
     29 C          61.0628   86.2756    9.0446 C.ar    1  UNL1        0.1214
     30 N          60.0872   87.0209    9.9064 N.ar    1  UNL1       -0.1711
     31 N          60.6708   87.1243   11.2843 N.ar    1  UNL1       -0.2756
     32 H          60.2505   87.5624   12.0593 H       1  UNL1        0.1889
@<TRIPOS>BOND
     1    17    18    3
     2    18     1    1
     3     1     2   ar
     4     2     3   ar
     5     3     7    1
     6     7     8    2
     7     7     9    2
     8     7    10    1
     9    10    12    1
    10    12    13   ar
    11    13    14   ar
    12    14    15   ar
    13    15    16   ar
    14     3     4   ar
    15     4     5   ar
    16     5     6   ar
    17     6    19    1
    18    19    20    1
    19    20    21   ar
    20    21    22   ar
    21    22    23   ar
    22    23    24    1
    23    23    25   ar
    24    25    26   ar
    25    26    27    1
    26    27    28   ar
    27    28    29   ar
    28    29    30   ar
    29    30    31   ar
    30     6     1   ar
    31    26    20   ar
    32    31    27   ar
    33    16    12   ar
    34    10    11    1
    35    31    32    1
@<TRIPOS>MOLECULE
*****
 32 35 0 0 0
SMALL
GASTEIGER

@<TRIPOS>ATOM
      1 C          63.9628   87.9919   13.8119 C.ar    1  UNL1        0.1042
      2 C          64.6234   89.2904   14.1689 C.ar    1  UNL1        0.0335
      3 C          64.3883   90.5083   13.3255 C.ar    1  UNL1        0.1261
      4 C          63.4927   90.4277   12.1250 C.ar    1  UNL1        0.0234
      5 C          62.8321   89.1293   11.7679 C.ar    1  UNL1        0.0396
      6 C          63.0672   87.9113   12.6114 C.ar    1  UNL1        0.1549
      7 S          65.0489   91.8069   13.6826 S.O2    1  UNL1        0.0751
      8 O          65.2233   92.1188   12.2258 O.2     1  UNL1       -0.1499
      9 O          64.8746   91.4950   15.1394 O.2     1  UNL1       -0.1499
     10 N          65.7095   93.1053   14.0396 N.pl3   1  UNL1       -0.1925
     11 H          65.2189   93.9524   13.9347 H       1  UNL1        0.1758
     12 C          67.1177   93.1133   14.5565 C.ar    1  UNL1        0.1977
     13 N          67.6189   93.8905   15.7375 N.ar    1  UNL1       -0.1997
     14 C          69.0828   93.6029   15.8941 C.ar    1  UNL1        0.2082
     15 N          69.4862   92.6480   14.8098 N.ar    1  UNL1       -0.1840
     16 S          68.2716   92.3454   13.9832 S.2     1  UNL1        0.0508
     17 N          64.4330   85.5561   15.4988 N.1     1  UNL1       -0.1907
     18 C          64.1979   86.7740   14.6553 C.1     1  UNL1        0.1035
     19 O          62.4066   86.6128   12.2543 O.3     1  UNL1       -0.4528
     20 C          62.4190   86.1307   10.8339 C.ar    1  UNL1        0.1467
     21 C          61.9588   87.0364    9.7304 C.ar    1  UNL1        0.0384
     22 C          61.9712   86.5543    8.3100 C.ar    1  UNL1        0.0145
     23 C          62.4439   85.1664    7.9932 C.ar    1  UNL1        0.0579
     24 CL         62.4564   84.6843    6.5729 Cl      1  UNL1       -0.0822
     25 C          62.9041   84.2607    9.0968 C.ar    1  UNL1        0.0159
     26 C          62.8917   84.7428   10.5171 C.ar    1  UNL1        0.0524
     27 C          63.3519   83.8370   11.6206 C.ar    1  UNL1        0.0784
     28 C          64.3594   82.7330   11.4928 C.ar    1  UNL1        0.0410
     29 C          64.5156   82.0899   12.8390 C.ar    1  UNL1        0.1214
     30 N          63.6047   82.7965   13.7987 N.ar    1  UNL1       -0.1711
     31 N          62.8856   83.8762   13.0457 N.ar    1  UNL1       -0.2756
     32 H          62.2236   84.5009   13.4210 H       1  UNL1        0.1889
@<TRIPOS>BOND
     1    17    18    3
     2    18     1    1
     3     1     2   ar
     4     2     3   ar
     5     3     7    1
     6     7     8    2
     7     7     9    2
     8     7    10    1
     9    10    12    1
    10    12    13   ar
    11    13    14   ar
    12    14    15   ar
    13    15    16   ar
    14     3     4   ar
    15     4     5   ar
    16     5     6   ar
    17     6    19    1
    18    19    20    1
    19    20    21   ar
    20    21    22   ar
    21    22    23   ar
    22    23    24    1
    23    23    25   ar
    24    25    26   ar
    25    26    27    1
    26    27    28   ar
    27    28    29   ar
    28    29    30   ar
    29    30    31   ar
    30     6     1   ar
    31    26    20   ar
    32    31    27   ar
    33    16    12   ar
    34    10    11    1
    35    31    32    1
@<TRIPOS>MOLECULE
*****
 32 35 0 0 0
SMALL
GASTEIGER

@<TRIPOS>ATOM
      1 C          64.1012   90.3612   15.3834 C.ar    1  UNL1        0.1042
      2 C          64.0461   88.9713   15.9445 C.ar    1  UNL1        0.0335
      3 C          63.9393   87.7936   15.0216 C.ar    1  UNL1        0.1261
      4 C          63.8877   88.0059   13.5376 C.ar    1  UNL1        0.0234
      5 C          63.9428   89.3959   12.9765 C.ar    1  UNL1        0.0396
      6 C          64.0496   90.5736   13.8994 C.ar    1  UNL1        0.1549
      7 S          63.8841   86.4035   15.5828 S.O2    1  UNL1        0.0751
      8 O          64.9559   85.9745   14.6251 O.2     1  UNL1       -0.1499
      9 O          62.8124   86.8326   16.5404 O.2     1  UNL1       -0.1499
     10 N          63.8290   85.0136   16.1438 N.pl3   1  UNL1       -0.1925
     11 H          64.0516   84.8554   17.0897 H       1  UNL1        0.1758
     12 C          63.4348   83.8646   15.2638 C.ar    1  UNL1        0.1977
     13 N          64.2098   82.5947   15.0719 N.ar    1  UNL1       -0.1997
     14 C          63.4503   81.7290   14.1106 C.ar    1  UNL1        0.2082
     15 N          62.2059   82.4639   13.7086 N.ar    1  UNL1       -0.1840
     16 S          62.1964   83.7837   14.4213 S.2     1  UNL1        0.0508
     17 N          64.3148   92.7166   17.2292 N.1     1  UNL1       -0.1907
     18 C          64.2080   91.5389   16.3063 C.1     1  UNL1        0.1035
     19 O          64.1047   91.9636   13.3383 O.3     1  UNL1       -0.4528
     20 C          65.0788   92.2935   12.2464 C.ar    1  UNL1        0.1467
     21 C          64.6379   92.2614   10.8130 C.ar    1  UNL1        0.0384
     22 C          65.6121   92.5913    9.7211 C.ar    1  UNL1        0.0145
     23 C          67.0271   92.9534   10.0626 C.ar    1  UNL1        0.0579
     24 CL         68.0012   93.2833    8.9707 Cl      1  UNL1       -0.0822
     25 C          67.4680   92.9855   11.4960 C.ar    1  UNL1        0.0159
     26 C          66.4939   92.6556   12.5879 C.ar    1  UNL1        0.0524
     27 C          66.9348   92.6877   14.0212 C.ar    1  UNL1        0.0784
     28 C          67.6832   91.6032   14.7380 C.ar    1  UNL1        0.0410
     29 C          67.9157   92.0553   16.1493 C.ar    1  UNL1        0.1214
     30 N          67.3109   93.4191   16.3047 N.ar    1  UNL1       -0.1711
     31 N          66.7047   93.8100   14.9895 N.ar    1  UNL1       -0.2756
     32 H          66.2378   94.6548   14.7958 H       1  UNL1        0.1889
@<TRIPOS>BOND
     1    17    18    3
     2    18     1    1
     3     1     2   ar
     4     2     3   ar
     5     3     7    1
     6     7     8    2
     7     7     9    2
     8     7    10    1
     9    10    12    1
    10    12    13   ar
    11    13    14   ar
    12    14    15   ar
    13    15    16   ar
    14     3     4   ar
    15     4     5   ar
    16     5     6   ar
    17     6    19    1
    18    19    20    1
    19    20    21   ar
    20    21    22   ar
    21    22    23   ar
    22    23    24    1
    23    23    25   ar
    24    25    26   ar
    25    26    27    1
    26    27    28   ar
    27    28    29   ar
    28    29    30   ar
    29    30    31   ar
    30     6     1   ar
    31    26    20   ar
    32    31    27   ar
    33    16    12   ar
    34    10    11    1
    35    31    32    1
