@<TRIPOS>MOLECULE
*****
 33 36 0 0 0
SMALL
GASTEIGER

@<TRIPOS>ATOM
      1 C          65.2054   92.0901   12.4858 C.ar    1  UNL1       -0.0004
      2 C          64.8640   91.2447   13.6769 C.ar    1  UNL1       -0.0024
      3 C          63.7475   90.2466   13.5929 C.ar    1  UNL1       -0.0002
      4 C          62.9724   90.0939   12.3178 C.ar    1  UNL1        0.0030
      5 C          61.8558   89.0957   12.2338 C.ar    1  UNL1        0.0369
      6 C          61.0807   88.9430   10.9587 C.ar    1  UNL1        0.1386
      7 C          61.4222   89.7884    9.7675 C.ar    1  UNL1        0.0369
      8 C          62.5387   90.7865    9.8516 C.ar    1  UNL1        0.0031
      9 C          63.3138   90.9392   11.1267 C.ar    1  UNL1       -0.0001
     10 C          64.4304   91.9373   11.2107 C.ar    1  UNL1       -0.0024
     11 C          66.3220   93.0882   12.5698 C.3     1  UNL1        0.1240
     12 N          67.2972   93.0287   13.7080 N.ar    1  UNL1       -0.3045
     13 C          67.2707   93.8876   14.9375 C.ar    1  UNL1        0.0983
     14 C          68.4272   93.4896   15.8059 C.ar    1  UNL1        0.1193
     15 N          69.1684   92.3847   15.1131 N.ar    1  UNL1       -0.2223
     16 C          68.4700   92.0999   13.8166 C.ar    1  UNL1        0.1788
     17 C          66.4634   94.1458   11.5156 C.3     1  UNL1        0.0826
     18 C          65.7967   95.4775   11.6950 C.3     1  UNL1        0.0197
     19 N          67.2715   93.8718   10.2819 N.3     1  UNL1       -0.2721
     20 C          67.9456   92.5433   10.1066 C.3     1  UNL1        0.0896
     21 C          67.2766   94.5562    7.7756 C.3     1  UNL1        0.0173
     22 C          67.4054   94.9263    9.2235 C.3     1  UNL1        0.0577
     23 C          67.6682   96.3508    9.6130 C.3     1  UNL1        0.0173
     24 O          59.9641   87.9449   10.8746 O.3     1  UNL1       -0.4751
     25 C          59.8205   87.0809    9.6568 C.3     1  UNL1        0.2103
     26 C          60.9710   86.2353    9.1973 C.3     1  UNL1        0.0723
     27 C          62.0008   85.4385    8.4525 C.3     1  UNL1        0.0088
     28 C          62.9743   84.8892    9.4527 C.3     1  UNL1        0.0005
     29 C          62.5463   85.3464   10.8156 C.3     1  UNL1        0.0005
     30 C          61.3081   86.1784   10.6578 C.3     1  UNL1        0.0088
     31 C          60.3933   86.4690    7.8329 C.2     1  UNL1        0.0532
     32 O          60.4721   85.3930    6.7907 O.co2   1  UNL1       -0.5491
     33 O          59.7369   87.7786    7.5106 O.co2   1  UNL1       -0.5491
@<TRIPOS>UNITY_ATOM_ATTR
32 1
charge -1
@<TRIPOS>BOND
     1    21    22    1
     2    22    23    1
     3    22    19    1
     4    19    20    1
     5    19    17    1
     6    17    18    1
     7    17    11    1
     8    11     1    1
     9     1     2   ar
    10     2     3   ar
    11     3     4   ar
    12     4     5   ar
    13     5     6   ar
    14     6    24    1
    15    24    25    1
    16    25    26    1
    17    26    31    1
    18    31    32   ar
    19    31    33   ar
    20    26    27    1
    21    27    28    1
    22    28    29    1
    23    29    30    1
    24     6     7   ar
    25     7     8   ar
    26     8     9   ar
    27     9    10   ar
    28    11    12    1
    29    12    13   ar
    30    13    14   ar
    31    14    15   ar
    32    15    16   ar
    33    10     1   ar
    34    16    12   ar
    35     9     4   ar
    36    30    26    1
@<TRIPOS>MOLECULE
*****
 33 36 0 0 0
SMALL
GASTEIGER

@<TRIPOS>ATOM
      1 C          65.2043   92.3186   11.9400 C.ar    1  UNL1       -0.0004
      2 C          65.1029   91.4712   13.1734 C.ar    1  UNL1       -0.0024
      3 C          64.1439   90.3186   13.2146 C.ar    1  UNL1       -0.0002
      4 C          63.2863   90.0134   12.0224 C.ar    1  UNL1        0.0030
      5 C          62.3273   88.8607   12.0637 C.ar    1  UNL1        0.0369
      6 C          61.4697   88.5555   10.8714 C.ar    1  UNL1        0.1386
      7 C          61.5712   89.4031    9.6379 C.ar    1  UNL1        0.0369
      8 C          62.5302   90.5557    9.5967 C.ar    1  UNL1        0.0031
      9 C          63.3877   90.8609   10.7889 C.ar    1  UNL1       -0.0001
     10 C          64.3467   92.0135   10.7477 C.ar    1  UNL1       -0.0024
     11 C          66.1633   93.4713   11.8987 C.3     1  UNL1        0.1240
     12 N          66.4538   94.1591   10.5977 N.ar    1  UNL1       -0.3045
     13 C          67.4164   93.6892    9.5477 C.ar    1  UNL1        0.0983
     14 C          67.3902   94.6772    8.4194 C.ar    1  UNL1        0.1193
     15 N          66.4113   95.7578    8.7720 N.ar    1  UNL1       -0.2223
     16 C          65.8326   95.4375   10.1183 C.ar    1  UNL1        0.1788
     17 C          66.8319   93.9362   13.1584 C.3     1  UNL1        0.0826
     18 C          66.6123   95.3358   13.6516 C.3     1  UNL1        0.0197
     19 N          67.7199   93.0016   13.9251 N.3     1  UNL1       -0.2721
     20 C          68.4816   91.9296   13.2034 C.3     1  UNL1        0.0896
     21 C          69.0741   93.7635   16.0073 C.3     1  UNL1        0.0173
     22 C          67.8464   93.1389   15.4134 C.3     1  UNL1        0.0577
     23 C          66.7453   92.6517   16.3078 C.3     1  UNL1        0.0173
     24 O          60.5107   87.4029   10.9126 O.3     1  UNL1       -0.4751
     25 C          61.0283   86.0007   11.0392 C.3     1  UNL1        0.2103
     26 C          61.9724   85.4540   10.0098 C.3     1  UNL1        0.0723
     27 C          63.0760   84.8034    9.2295 C.3     1  UNL1        0.0088
     28 C          62.7976   85.0123    7.7705 C.3     1  UNL1        0.0005
     29 C          61.5220   85.7920    7.6490 C.3     1  UNL1        0.0005
     30 C          61.0120   86.0650    9.0330 C.3     1  UNL1        0.0088
     31 C          62.7355   84.9573   11.2018 C.2     1  UNL1        0.0532
     32 O          62.5060   85.5744   12.5496 O.co2   1  UNL1       -0.5491
     33 O          63.7280   83.8434   11.0461 O.co2   1  UNL1       -0.5491
@<TRIPOS>UNITY_ATOM_ATTR
32 1
charge -1
@<TRIPOS>BOND
     1    21    22    1
     2    22    23    1
     3    22    19    1
     4    19    20    1
     5    19    17    1
     6    17    18    1
     7    17    11    1
     8    11     1    1
     9     1     2   ar
    10     2     3   ar
    11     3     4   ar
    12     4     5   ar
    13     5     6   ar
    14     6    24    1
    15    24    25    1
    16    25    26    1
    17    26    31    1
    18    31    32   ar
    19    31    33   ar
    20    26    27    1
    21    27    28    1
    22    28    29    1
    23    29    30    1
    24     6     7   ar
    25     7     8   ar
    26     8     9   ar
    27     9    10   ar
    28    11    12    1
    29    12    13   ar
    30    13    14   ar
    31    14    15   ar
    32    15    16   ar
    33    10     1   ar
    34    16    12   ar
    35     9     4   ar
    36    30    26    1
@<TRIPOS>MOLECULE
*****
 33 36 0 0 0
SMALL
GASTEIGER

@<TRIPOS>ATOM
      1 C          63.6595   85.6382   13.5286 C.ar    1  UNL1       -0.0004
      2 C          64.4201   85.9871   14.7735 C.ar    1  UNL1       -0.0024
      3 C          64.7507   87.4191   15.0738 C.ar    1  UNL1       -0.0002
      4 C          64.3208   88.5021   14.1292 C.ar    1  UNL1        0.0030
      5 C          64.6515   89.9341   14.4296 C.ar    1  UNL1        0.0369
      6 C          64.2215   91.0171   13.4850 C.ar    1  UNL1        0.1386
      7 C          63.4609   90.6681   12.2401 C.ar    1  UNL1        0.0369
      8 C          63.1303   89.2362   11.9398 C.ar    1  UNL1        0.0031
      9 C          63.5602   88.1532   12.8844 C.ar    1  UNL1       -0.0001
     10 C          63.2296   86.7212   12.5841 C.ar    1  UNL1       -0.0024
     11 C          63.3288   84.2062   13.2283 C.3     1  UNL1        0.1240
     12 N          63.6113   83.6406   11.8681 N.ar    1  UNL1       -0.3045
     13 C          62.9025   84.0047   10.5972 C.ar    1  UNL1        0.0983
     14 C          63.5054   83.2008    9.4836 C.ar    1  UNL1        0.1193
     15 N          64.5869   82.3398   10.0662 N.ar    1  UNL1       -0.2223
     16 C          64.6523   82.6117   11.5398 C.ar    1  UNL1        0.1788
     17 C          62.7156   83.3399   14.2882 C.3     1  UNL1        0.0826
     18 C          61.8363   83.9498   15.3394 C.3     1  UNL1        0.0197
     19 N          62.9816   81.8638   14.2970 N.3     1  UNL1       -0.2721
     20 C          64.2272   81.3299   14.9402 C.3     1  UNL1        0.0896
     21 C          60.5862   80.8678   14.1549 C.3     1  UNL1        0.0173
     22 C          62.0022   80.9213   13.6626 C.3     1  UNL1        0.0577
     23 C          62.4386   80.0325   12.5359 C.3     1  UNL1        0.0173
     24 O          64.5522   92.4490   13.7853 O.3     1  UNL1       -0.4751
     25 C          65.8451   93.0372   13.3032 C.3     1  UNL1        0.2103
     26 C          67.1337   92.6699   13.9772 C.3     1  UNL1        0.0723
     27 C          68.5156   92.2304   14.3608 C.3     1  UNL1        0.0088
     28 C          68.6541   92.3807   15.8468 C.3     1  UNL1        0.0005
     29 C          67.3578   92.9131   16.3817 C.3     1  UNL1        0.0005
     30 C          66.4182   93.0918   15.2262 C.3     1  UNL1        0.0088
     31 C          67.5799   92.3248   12.5873 C.2     1  UNL1        0.0532
     32 O          68.8796   91.6072   12.3733 O.co2   1  UNL1       -0.5491
     33 O          66.7262   92.6971   11.4115 O.co2   1  UNL1       -0.5491
@<TRIPOS>UNITY_ATOM_ATTR
32 1
charge -1
@<TRIPOS>BOND
     1    21    22    1
     2    22    23    1
     3    22    19    1
     4    19    20    1
     5    19    17    1
     6    17    18    1
     7    17    11    1
     8    11     1    1
     9     1     2   ar
    10     2     3   ar
    11     3     4   ar
    12     4     5   ar
    13     5     6   ar
    14     6    24    1
    15    24    25    1
    16    25    26    1
    17    26    31    1
    18    31    32   ar
    19    31    33   ar
    20    26    27    1
    21    27    28    1
    22    28    29    1
    23    29    30    1
    24     6     7   ar
    25     7     8   ar
    26     8     9   ar
    27     9    10   ar
    28    11    12    1
    29    12    13   ar
    30    13    14   ar
    31    14    15   ar
    32    15    16   ar
    33    10     1   ar
    34    16    12   ar
    35     9     4   ar
    36    30    26    1
@<TRIPOS>MOLECULE
*****
 33 36 0 0 0
SMALL
GASTEIGER

@<TRIPOS>ATOM
      1 C          62.3981   85.7136   11.7155 C.ar    1  UNL1       -0.0004
      2 C          62.8183   87.1004   12.1030 C.ar    1  UNL1       -0.0024
      3 C          62.3303   88.2796   11.3150 C.ar    1  UNL1       -0.0002
      4 C          61.4221   88.0722   10.1394 C.ar    1  UNL1        0.0030
      5 C          60.9340   89.2516    9.3513 C.ar    1  UNL1        0.0369
      6 C          60.0258   89.0441    8.1757 C.ar    1  UNL1        0.1386
      7 C          59.6055   87.6572    7.7882 C.ar    1  UNL1        0.0369
      8 C          60.0935   86.4779    8.5762 C.ar    1  UNL1        0.0031
      9 C          61.0018   86.6854    9.7518 C.ar    1  UNL1       -0.0001
     10 C          61.4898   85.5061   10.5399 C.ar    1  UNL1       -0.0024
     11 C          62.8861   84.5342   12.5035 C.3     1  UNL1        0.1240
     12 N          63.2389   83.2568   11.8009 N.ar    1  UNL1       -0.3045
     13 C          62.5800   81.9254   12.0086 C.ar    1  UNL1        0.0983
     14 C          63.2464   80.9322   11.1033 C.ar    1  UNL1        0.1193
     15 N          64.3171   81.6498   10.3361 N.ar    1  UNL1       -0.2223
     16 C          64.3125   83.0865   10.7673 C.ar    1  UNL1        0.1788
     17 C          63.0213   84.6323   13.9942 C.3     1  UNL1        0.0826
     18 C          61.9673   84.0419   14.8834 C.3     1  UNL1        0.0197
     19 N          64.2105   85.3208   14.5957 N.3     1  UNL1       -0.2721
     20 C          65.5903   84.7862   14.3500 C.3     1  UNL1        0.0896
     21 C          64.4599   87.8846   14.9343 C.3     1  UNL1        0.0173
     22 C          64.0199   86.5438   15.4430 C.3     1  UNL1        0.0577
     23 C          63.3893   86.4261   16.7989 C.3     1  UNL1        0.0173
     24 O          59.5378   90.2234    7.3877 O.3     1  UNL1       -0.4751
     25 C          58.9973   90.0278    6.0021 C.3     1  UNL1        0.2103
     26 C          59.0432   91.1547    5.0132 C.3     1  UNL1        0.0723
     27 C          58.7804   92.2976    4.0779 C.3     1  UNL1        0.0088
     28 C          60.0845   92.6922    3.4504 C.3     1  UNL1        0.0005
     29 C          61.1532   91.7933    3.9979 C.3     1  UNL1        0.0005
     30 C          60.5096   90.8430    4.9638 C.3     1  UNL1        0.0088
     31 C          57.5672   91.2308    5.2694 C.2     1  UNL1        0.0532
     32 O          56.8647   90.0943    5.9512 O.co2   1  UNL1       -0.5491
     33 O          56.7937   92.4435    4.8437 O.co2   1  UNL1       -0.5491
@<TRIPOS>UNITY_ATOM_ATTR
32 1
charge -1
@<TRIPOS>BOND
     1    21    22    1
     2    22    23    1
     3    22    19    1
     4    19    20    1
     5    19    17    1
     6    17    18    1
     7    17    11    1
     8    11     1    1
     9     1     2   ar
    10     2     3   ar
    11     3     4   ar
    12     4     5   ar
    13     5     6   ar
    14     6    24    1
    15    24    25    1
    16    25    26    1
    17    26    31    1
    18    31    32   ar
    19    31    33   ar
    20    26    27    1
    21    27    28    1
    22    28    29    1
    23    29    30    1
    24     6     7   ar
    25     7     8   ar
    26     8     9   ar
    27     9    10   ar
    28    11    12    1
    29    12    13   ar
    30    13    14   ar
    31    14    15   ar
    32    15    16   ar
    33    10     1   ar
    34    16    12   ar
    35     9     4   ar
    36    30    26    1
@<TRIPOS>MOLECULE
*****
 33 36 0 0 0
SMALL
GASTEIGER

@<TRIPOS>ATOM
      1 C          62.5154   85.8965   11.7483 C.ar    1  UNL1       -0.0004
      2 C          62.9440   87.3003   12.0575 C.ar    1  UNL1       -0.0024
      3 C          62.4051   88.4439   11.2502 C.ar    1  UNL1       -0.0002
      4 C          61.4376   88.1838   10.1338 C.ar    1  UNL1        0.0030
      5 C          60.8988   89.3275    9.3266 C.ar    1  UNL1        0.0369
      6 C          59.9313   89.0674    8.2102 C.ar    1  UNL1        0.1386
      7 C          59.5027   87.6635    7.9011 C.ar    1  UNL1        0.0369
      8 C          60.0416   86.5198    8.7083 C.ar    1  UNL1        0.0031
      9 C          61.0091   86.7800    9.8247 C.ar    1  UNL1       -0.0001
     10 C          61.5479   85.6363   10.6319 C.ar    1  UNL1       -0.0024
     11 C          63.0543   84.7527   12.5555 C.3     1  UNL1        0.1240
     12 N          63.1029   84.8479   14.0517 N.ar    1  UNL1       -0.3045
     13 C          64.1841   85.5034   14.8587 C.ar    1  UNL1        0.0983
     14 C          63.8282   85.3650   16.3093 C.ar    1  UNL1        0.1193
     15 N          62.5271   84.6240   16.3988 N.ar    1  UNL1       -0.2223
     16 C          62.0788   84.3044   15.0035 C.ar    1  UNL1        0.1788
     17 C          63.5446   83.5138   11.8665 C.3     1  UNL1        0.0826
     18 C          63.8934   83.5549   10.4081 C.3     1  UNL1        0.0197
     19 N          63.6860   82.2339   12.6358 N.3     1  UNL1       -0.2721
     20 C          64.8604   82.0324   13.5470 C.3     1  UNL1        0.0896
     21 C          61.5660   81.0187   13.5183 C.3     1  UNL1        0.0173
     22 C          62.6532   81.1555   12.4938 C.3     1  UNL1        0.0577
     23 C          62.7074   80.2138   11.3275 C.3     1  UNL1        0.0173
     24 O          59.3924   90.2110    7.4030 O.3     1  UNL1       -0.4751
     25 C          58.9989   89.9987    5.9711 C.3     1  UNL1        0.2103
     26 C          59.0636   91.1388    4.9986 C.3     1  UNL1        0.0723
     27 C          58.8198   92.2986    4.0792 C.3     1  UNL1        0.0088
     28 C          60.1309   92.6827    3.4600 C.3     1  UNL1        0.0005
     29 C          61.1850   91.7603    3.9966 C.3     1  UNL1        0.0005
     30 C          60.5253   90.8060    4.9476 C.3     1  UNL1        0.0088
     31 C          57.5883   91.2331    5.2530 C.2     1  UNL1        0.0532
     32 O          56.8442   92.4855    4.8953 O.co2   1  UNL1       -0.5491
     33 O          56.8572   90.0752    5.8650 O.co2   1  UNL1       -0.5491
@<TRIPOS>UNITY_ATOM_ATTR
32 1
charge -1
@<TRIPOS>BOND
     1    21    22    1
     2    22    23    1
     3    22    19    1
     4    19    20    1
     5    19    17    1
     6    17    18    1
     7    17    11    1
     8    11     1    1
     9     1     2   ar
    10     2     3   ar
    11     3     4   ar
    12     4     5   ar
    13     5     6   ar
    14     6    24    1
    15    24    25    1
    16    25    26    1
    17    26    31    1
    18    31    32   ar
    19    31    33   ar
    20    26    27    1
    21    27    28    1
    22    28    29    1
    23    29    30    1
    24     6     7   ar
    25     7     8   ar
    26     8     9   ar
    27     9    10   ar
    28    11    12    1
    29    12    13   ar
    30    13    14   ar
    31    14    15   ar
    32    15    16   ar
    33    10     1   ar
    34    16    12   ar
    35     9     4   ar
    36    30    26    1
@<TRIPOS>MOLECULE
*****
 33 36 0 0 0
SMALL
GASTEIGER

@<TRIPOS>ATOM
      1 C          62.4320   87.6920   11.0040 C.ar    1  UNL1       -0.0004
      2 C          62.3488   88.9498   10.1910 C.ar    1  UNL1       -0.0024
      3 C          62.9216   90.2284   10.7269 C.ar    1  UNL1       -0.0002
      4 C          63.5776   90.2491   12.0757 C.ar    1  UNL1        0.0030
      5 C          64.1504   91.5277   12.6115 C.ar    1  UNL1        0.0369
      6 C          64.8064   91.5485   13.9603 C.ar    1  UNL1        0.1386
      7 C          64.8895   90.2905   14.7733 C.ar    1  UNL1        0.0369
      8 C          64.3167   89.0120   14.2374 C.ar    1  UNL1        0.0031
      9 C          63.6607   88.9913   12.8886 C.ar    1  UNL1       -0.0001
     10 C          63.0879   87.7127   12.3528 C.ar    1  UNL1       -0.0024
     11 C          61.8592   86.4134   10.4681 C.3     1  UNL1        0.1240
     12 N          60.8393   86.4511    9.3688 N.ar    1  UNL1       -0.3045
     13 C          59.5529   87.2222    9.3857 C.ar    1  UNL1        0.0983
     14 C          58.8453   86.9720    8.0870 C.ar    1  UNL1        0.1193
     15 N          59.6945   86.0461    7.2674 N.ar    1  UNL1       -0.2223
     16 C          60.9269   85.7242    8.0596 C.ar    1  UNL1        0.1788
     17 C          62.3062   85.0971   11.0316 C.3     1  UNL1        0.0826
     18 C          61.8180   84.6533   12.3788 C.3     1  UNL1        0.0197
     19 N          63.2415   84.2246   10.2480 N.3     1  UNL1       -0.2721
     20 C          63.5520   84.5527    8.8176 C.3     1  UNL1        0.0896
     21 C          64.8231   83.2002   12.0367 C.3     1  UNL1        0.0173
     22 C          63.8664   83.0241   10.8948 C.3     1  UNL1        0.0577
     23 C          63.5345   81.6476   10.3998 C.3     1  UNL1        0.0173
     24 O          65.3792   92.8270   14.4962 O.3     1  UNL1       -0.4751
     25 C          66.6841   93.3440   13.9671 C.3     1  UNL1        0.2103
     26 C          67.0967   93.0369   12.5581 C.3     1  UNL1        0.0723
     27 C          67.7109   92.5325   11.2860 C.3     1  UNL1        0.0088
     28 C          67.0397   93.2286   10.1393 C.3     1  UNL1        0.0005
     29 C          66.0107   94.1633   10.7027 C.3     1  UNL1        0.0005
     30 C          66.0459   94.0448   12.1976 C.3     1  UNL1        0.0088
     31 C          68.0612   92.0932   13.2131 C.2     1  UNL1        0.0532
     32 O          68.0522   91.9265   14.7038 O.co2   1  UNL1       -0.5491
     33 O          69.0348   91.3162   12.3775 O.co2   1  UNL1       -0.5491
@<TRIPOS>UNITY_ATOM_ATTR
32 1
charge -1
@<TRIPOS>BOND
     1    21    22    1
     2    22    23    1
     3    22    19    1
     4    19    20    1
     5    19    17    1
     6    17    18    1
     7    17    11    1
     8    11     1    1
     9     1     2   ar
    10     2     3   ar
    11     3     4   ar
    12     4     5   ar
    13     5     6   ar
    14     6    24    1
    15    24    25    1
    16    25    26    1
    17    26    31    1
    18    31    32   ar
    19    31    33   ar
    20    26    27    1
    21    27    28    1
    22    28    29    1
    23    29    30    1
    24     6     7   ar
    25     7     8   ar
    26     8     9   ar
    27     9    10   ar
    28    11    12    1
    29    12    13   ar
    30    13    14   ar
    31    14    15   ar
    32    15    16   ar
    33    10     1   ar
    34    16    12   ar
    35     9     4   ar
    36    30    26    1
@<TRIPOS>MOLECULE
*****
 33 36 0 0 0
SMALL
GASTEIGER

@<TRIPOS>ATOM
      1 C          63.6463   85.7329   13.5349 C.ar    1  UNL1       -0.0004
      2 C          64.4314   86.0360   14.7765 C.ar    1  UNL1       -0.0024
      3 C          64.8007   87.4526   15.1032 C.ar    1  UNL1       -0.0002
      4 C          64.3848   88.5661   14.1882 C.ar    1  UNL1        0.0030
      5 C          64.7541   89.9828   14.5150 C.ar    1  UNL1        0.0369
      6 C          64.3383   91.0963   13.6000 C.ar    1  UNL1        0.1386
      7 C          63.5532   90.7931   12.3583 C.ar    1  UNL1        0.0369
      8 C          63.1839   89.3765   12.0316 C.ar    1  UNL1        0.0031
      9 C          63.5997   88.2630   12.9466 C.ar    1  UNL1       -0.0001
     10 C          63.2305   86.8464   12.6199 C.ar    1  UNL1       -0.0024
     11 C          63.2770   84.3162   13.2082 C.3     1  UNL1        0.1240
     12 N          63.5254   83.7747   11.8316 N.ar    1  UNL1       -0.3045
     13 C          64.5156   82.7079   11.4692 C.ar    1  UNL1        0.0983
     14 C          64.4296   82.4789    9.9893 C.ar    1  UNL1        0.1193
     15 N          63.3861   83.4042    9.4370 N.ar    1  UNL1       -0.2223
     16 C          62.8273   84.2051   10.5756 C.ar    1  UNL1        0.1788
     17 C          62.6592   83.4410   14.2581 C.3     1  UNL1        0.0826
     18 C          61.7243   84.0315   15.2718 C.3     1  UNL1        0.0197
     19 N          62.9762   81.9753   14.2944 N.3     1  UNL1       -0.2721
     20 C          64.2343   81.4962   14.9561 C.3     1  UNL1        0.0896
     21 C          62.5051   80.1119   12.5464 C.3     1  UNL1        0.0173
     22 C          62.0352   80.9887   13.6691 C.3     1  UNL1        0.0577
     23 C          60.6243   80.8789   14.1663 C.3     1  UNL1        0.0173
     24 O          64.7076   92.5129   13.9266 O.3     1  UNL1       -0.4751
     25 C          66.1238   92.9772   13.7563 C.3     1  UNL1        0.2103
     26 C          66.8472   92.7211   12.4675 C.3     1  UNL1        0.0723
     27 C          67.7773   92.3170   11.3623 C.3     1  UNL1        0.0088
     28 C          67.2119   92.8283   10.0705 C.3     1  UNL1        0.0005
     29 C          65.9323   93.5483   10.3773 C.3     1  UNL1        0.0005
     30 C          65.7069   93.4821   11.8588 C.3     1  UNL1        0.0088
     31 C          67.8362   92.0136   13.3458 C.2     1  UNL1        0.0532
     32 O          69.1088   91.4765   12.7610 O.co2   1  UNL1       -0.5491
     33 O          67.5526   91.8433   14.8088 O.co2   1  UNL1       -0.5491
@<TRIPOS>UNITY_ATOM_ATTR
32 1
charge -1
@<TRIPOS>BOND
     1    21    22    1
     2    22    23    1
     3    22    19    1
     4    19    20    1
     5    19    17    1
     6    17    18    1
     7    17    11    1
     8    11     1    1
     9     1     2   ar
    10     2     3   ar
    11     3     4   ar
    12     4     5   ar
    13     5     6   ar
    14     6    24    1
    15    24    25    1
    16    25    26    1
    17    26    31    1
    18    31    32   ar
    19    31    33   ar
    20    26    27    1
    21    27    28    1
    22    28    29    1
    23    29    30    1
    24     6     7   ar
    25     7     8   ar
    26     8     9   ar
    27     9    10   ar
    28    11    12    1
    29    12    13   ar
    30    13    14   ar
    31    14    15   ar
    32    15    16   ar
    33    10     1   ar
    34    16    12   ar
    35     9     4   ar
    36    30    26    1
@<TRIPOS>MOLECULE
*****
 33 36 0 0 0
SMALL
GASTEIGER

@<TRIPOS>ATOM
      1 C          62.4566   87.6025   10.6691 C.ar    1  UNL1       -0.0004
      2 C          62.2857   88.9758   10.0904 C.ar    1  UNL1       -0.0024
      3 C          62.7350   90.1780   10.8668 C.ar    1  UNL1       -0.0002
      4 C          63.3553   90.0069   12.2218 C.ar    1  UNL1        0.0030
      5 C          63.8046   91.2092   12.9981 C.ar    1  UNL1        0.0369
      6 C          64.4248   91.0381   14.3532 C.ar    1  UNL1        0.1386
      7 C          64.5957   89.6647   14.9318 C.ar    1  UNL1        0.0369
      8 C          64.1464   88.4626   14.1555 C.ar    1  UNL1        0.0031
      9 C          63.5261   88.6336   12.8004 C.ar    1  UNL1       -0.0001
     10 C          63.0768   87.4314   12.0241 C.ar    1  UNL1       -0.0024
     11 C          62.0072   86.4002    9.8927 C.3     1  UNL1        0.1240
     12 N          60.8149   86.4946    8.9876 N.ar    1  UNL1       -0.3045
     13 C          59.5602   87.2702    9.2601 C.ar    1  UNL1        0.0983
     14 C          58.6377   87.0849    8.0920 C.ar    1  UNL1        0.1193
     15 N          59.3223   86.1949    7.0973 N.ar    1  UNL1       -0.2223
     16 C          60.6678   85.8300    7.6509 C.ar    1  UNL1        0.1788
     17 C          62.7502   85.1036   10.0216 C.3     1  UNL1        0.0826
     18 C          63.5401   84.5733    8.8618 C.3     1  UNL1        0.0197
     19 N          62.7034   84.3372   11.3101 N.3     1  UNL1       -0.2721
     20 C          62.0478   84.9393   12.5175 C.3     1  UNL1        0.0896
     21 C          62.5045   81.8184   11.9154 C.3     1  UNL1        0.0173
     22 C          63.3122   82.9687   11.3914 C.3     1  UNL1        0.0577
     23 C          64.7286   82.7504   10.9486 C.3     1  UNL1        0.0173
     24 O          64.8742   92.2403   15.1295 O.3     1  UNL1       -0.4751
     25 C          65.8747   93.1864   14.5345 C.3     1  UNL1        0.2103
     26 C          67.3251   92.8077   14.4805 C.3     1  UNL1        0.0723
     27 C          68.7363   92.4531   14.1162 C.3     1  UNL1        0.0088
     28 C          69.4926   92.1979   15.3862 C.3     1  UNL1        0.0005
     29 C          68.5489   92.3948   16.5353 C.3     1  UNL1        0.0005
     30 C          67.2092   92.7717   15.9755 C.3     1  UNL1        0.0088
     31 C          67.1377   92.9229   12.9967 C.2     1  UNL1        0.0532
     32 O          67.9725   92.0913   12.0685 O.co2   1  UNL1       -0.5491
     33 O          66.1156   93.8698   12.4411 O.co2   1  UNL1       -0.5491
@<TRIPOS>UNITY_ATOM_ATTR
32 1
charge -1
@<TRIPOS>BOND
     1    21    22    1
     2    22    23    1
     3    22    19    1
     4    19    20    1
     5    19    17    1
     6    17    18    1
     7    17    11    1
     8    11     1    1
     9     1     2   ar
    10     2     3   ar
    11     3     4   ar
    12     4     5   ar
    13     5     6   ar
    14     6    24    1
    15    24    25    1
    16    25    26    1
    17    26    31    1
    18    31    32   ar
    19    31    33   ar
    20    26    27    1
    21    27    28    1
    22    28    29    1
    23    29    30    1
    24     6     7   ar
    25     7     8   ar
    26     8     9   ar
    27     9    10   ar
    28    11    12    1
    29    12    13   ar
    30    13    14   ar
    31    14    15   ar
    32    15    16   ar
    33    10     1   ar
    34    16    12   ar
    35     9     4   ar
    36    30    26    1
@<TRIPOS>MOLECULE
*****
 33 36 0 0 0
SMALL
GASTEIGER

@<TRIPOS>ATOM
      1 C          63.2762   86.2485   12.6087 C.ar    1  UNL1       -0.0004
      2 C          63.9563   86.0357   13.9286 C.ar    1  UNL1       -0.0024
      3 C          64.4331   87.2138   14.7252 C.ar    1  UNL1       -0.0002
      4 C          64.2299   88.6048   14.2019 C.ar    1  UNL1        0.0030
      5 C          64.7068   89.7830   14.9985 C.ar    1  UNL1        0.0369
      6 C          64.5036   91.1740   14.4752 C.ar    1  UNL1        0.1386
      7 C          63.8235   91.3868   13.1552 C.ar    1  UNL1        0.0369
      8 C          63.3466   90.2086   12.3586 C.ar    1  UNL1        0.0031
      9 C          63.5498   88.8176   12.8820 C.ar    1  UNL1       -0.0001
     10 C          63.0730   87.6395   12.0854 C.ar    1  UNL1       -0.0024
     11 C          62.7993   85.0703   11.8121 C.3     1  UNL1        0.1240
     12 N          62.3439   85.2578   10.3953 N.ar    1  UNL1       -0.3045
     13 C          63.1018   84.8552    9.1650 C.ar    1  UNL1        0.0983
     14 C          62.2769   85.2293    7.9693 C.ar    1  UNL1        0.1193
     15 N          61.0093   85.8632    8.4606 N.ar    1  UNL1       -0.2223
     16 C          61.0507   85.8808    9.9599 C.ar    1  UNL1        0.1788
     17 C          62.7779   83.7048   12.4324 C.3     1  UNL1        0.0826
     18 C          61.9467   83.4491   13.6546 C.3     1  UNL1        0.0197
     19 N          63.5876   82.5948   11.8304 N.3     1  UNL1       -0.2721
     20 C          64.9875   82.8576   11.3599 C.3     1  UNL1        0.0896
     21 C          62.5247   80.4889   12.9192 C.3     1  UNL1        0.0173
     22 C          62.9974   81.2221   11.6989 C.3     1  UNL1        0.0577
     23 C          62.8800   80.5825   10.3472 C.3     1  UNL1        0.0173
     24 O          64.9804   92.3521   15.2717 O.3     1  UNL1       -0.4751
     25 C          65.9824   93.3001   14.6822 C.3     1  UNL1        0.2103
     26 C          67.4148   92.8805   14.5336 C.3     1  UNL1        0.0723
     27 C          68.7895   92.4899   14.0782 C.3     1  UNL1        0.0088
     28 C          69.6155   92.1976   15.2957 C.3     1  UNL1        0.0005
     29 C          68.7513   92.4076   16.5036 C.3     1  UNL1        0.0005
     30 C          67.3911   92.8296   16.0326 C.3     1  UNL1        0.0088
     31 C          67.1389   93.0191   13.0658 C.2     1  UNL1        0.0532
     32 O          67.8607   92.1473   12.0814 O.co2   1  UNL1       -0.5491
     33 O          66.1413   94.0295   12.5823 O.co2   1  UNL1       -0.5491
@<TRIPOS>UNITY_ATOM_ATTR
32 1
charge -1
@<TRIPOS>BOND
     1    21    22    1
     2    22    23    1
     3    22    19    1
     4    19    20    1
     5    19    17    1
     6    17    18    1
     7    17    11    1
     8    11     1    1
     9     1     2   ar
    10     2     3   ar
    11     3     4   ar
    12     4     5   ar
    13     5     6   ar
    14     6    24    1
    15    24    25    1
    16    25    26    1
    17    26    31    1
    18    31    32   ar
    19    31    33   ar
    20    26    27    1
    21    27    28    1
    22    28    29    1
    23    29    30    1
    24     6     7   ar
    25     7     8   ar
    26     8     9   ar
    27     9    10   ar
    28    11    12    1
    29    12    13   ar
    30    13    14   ar
    31    14    15   ar
    32    15    16   ar
    33    10     1   ar
    34    16    12   ar
    35     9     4   ar
    36    30    26    1
