@<TRIPOS>MOLECULE
*****
 24 26 0 0 0
SMALL
GASTEIGER

@<TRIPOS>ATOM
      1 C          61.4289   88.1762   10.8423 C.ar    1  UNL1       -0.0143
      2 C          62.2058   86.9460   11.2072 C.ar    1  UNL1        0.0051
      3 S          61.9726   85.9174   10.1407 S.2     1  UNL1       -0.0915
      4 C          61.0517   86.5118    9.1167 C.ar    1  UNL1        0.0288
      5 C          60.4757   85.9623    7.8454 C.ar    1  UNL1        0.0065
      6 C          59.5637   86.8088    7.0078 C.ar    1  UNL1        0.0005
      7 C          59.2277   88.2048    7.4415 C.ar    1  UNL1        0.0000
      8 C          59.8037   88.7544    8.7127 C.ar    1  UNL1        0.0002
      9 C          60.7157   87.9079    9.5503 C.ar    1  UNL1        0.0025
     10 C          61.3748   89.4510   11.6310 C.3     1  UNL1        0.0657
     11 C          60.0976   89.8657   12.2996 C.3     1  UNL1        0.0111
     12 C          63.3017   90.4341   13.0700 C.ar    1  UNL1        0.1525
     13 C          64.5246   91.2943   13.1901 C.ar    1  UNL1        0.0397
     14 C          65.0437   92.0315   11.9914 C.ar    1  UNL1        0.0238
     15 C          64.3398   91.9087   10.6725 C.ar    1  UNL1        0.0987
     16 N          63.1169   91.0485   10.5524 N.ar    1  UNL1       -0.2448
     17 C          62.5977   90.3112   11.7512 C.ar    1  UNL1        0.0965
     18 C          63.5347   89.7500   15.5656 C.3     1  UNL1        0.2525
     19 O          62.7826   89.6968   14.2688 O.3     1  UNL1       -0.4702
     20 C          63.0649   86.7746   12.4248 C.3     1  UNL1        0.0499
     21 C          63.2990   85.4054   12.9908 C.3     1  UNL1        0.0774
     22 N          63.2935   85.1968   14.4762 N.3     1  UNL1       -0.2700
     23 C          64.1888   86.0217   15.3527 C.3     1  UNL1        0.0897
     24 C          62.3928   84.1635   15.0851 C.3     1  UNL1        0.0897
@<TRIPOS>BOND
     1    18    19    1
     2    19    12    1
     3    12    13   ar
     4    13    14   ar
     5    14    15   ar
     6    15    16   ar
     7    16    17   ar
     8    17    10    1
     9    10    11    1
    10    10     1    1
    11     1     2   ar
    12     2    20    1
    13    20    21    1
    14    21    22    1
    15    22    23    1
    16    22    24    1
    17     2     3   ar
    18     3     4   ar
    19     4     5   ar
    20     5     6   ar
    21     6     7   ar
    22     7     8   ar
    23     8     9   ar
    24    17    12   ar
    25     9     1   ar
    26     9     4   ar
@<TRIPOS>MOLECULE
*****
 24 26 0 0 0
SMALL
GASTEIGER

@<TRIPOS>ATOM
      1 C          63.5372   87.1475   13.0549 C.ar    1  UNL1       -0.0143
      2 C          63.6802   88.6279   13.2495 C.ar    1  UNL1        0.0051
      3 S          62.9648   89.3146   12.1240 S.2     1  UNL1       -0.0915
      4 C          62.3797   88.2585   11.2338 C.ar    1  UNL1        0.0288
      5 C          61.5704   88.3435    9.9738 C.ar    1  UNL1        0.0065
      6 C          61.1150   87.0891    9.2890 C.ar    1  UNL1        0.0005
      7 C          61.4688   85.7497    9.8643 C.ar    1  UNL1        0.0000
      8 C          62.2780   85.6648   11.1244 C.ar    1  UNL1        0.0002
      9 C          62.7334   86.9192   11.8092 C.ar    1  UNL1        0.0025
     10 C          64.0993   86.0823   13.9490 C.3     1  UNL1        0.0657
     11 C          65.0687   86.4482   15.0338 C.3     1  UNL1        0.0111
     12 C          62.5083   84.1034   14.4989 C.ar    1  UNL1        0.1525
     13 C          62.1012   82.6723   14.3083 C.ar    1  UNL1        0.0397
     14 C          62.8779   81.7892   13.3774 C.ar    1  UNL1        0.0238
     15 C          64.0619   82.3370   12.6370 C.ar    1  UNL1        0.0987
     16 N          64.4689   83.7681   12.8276 N.ar    1  UNL1       -0.2448
     17 C          63.6922   84.6514   13.7585 C.ar    1  UNL1        0.0965
     18 C          62.2833   85.3174   16.7849 C.3     1  UNL1        0.2525
     19 O          61.7315   84.9865   15.4298 O.3     1  UNL1       -0.4702
     20 C          64.4104   89.3031   14.3724 C.3     1  UNL1        0.0499
     21 C          64.1374   90.7445   14.6851 C.3     1  UNL1        0.0774
     22 N          65.1554   91.7919   14.3437 N.3     1  UNL1       -0.2700
     23 C          65.9774   92.4210   15.4294 C.3     1  UNL1        0.0897
     24 C          65.3515   92.2102   12.9166 C.3     1  UNL1        0.0897
@<TRIPOS>BOND
     1    18    19    1
     2    19    12    1
     3    12    13   ar
     4    13    14   ar
     5    14    15   ar
     6    15    16   ar
     7    16    17   ar
     8    17    10    1
     9    10    11    1
    10    10     1    1
    11     1     2   ar
    12     2    20    1
    13    20    21    1
    14    21    22    1
    15    22    23    1
    16    22    24    1
    17     2     3   ar
    18     3     4   ar
    19     4     5   ar
    20     5     6   ar
    21     6     7   ar
    22     7     8   ar
    23     8     9   ar
    24    17    12   ar
    25     9     1   ar
    26     9     4   ar
@<TRIPOS>MOLECULE
*****
 24 26 0 0 0
SMALL
GASTEIGER

@<TRIPOS>ATOM
      1 C          63.5805   86.0767   13.2092 C.ar    1  UNL1       -0.0143
      2 C          63.2216   84.6464   12.9347 C.ar    1  UNL1        0.0051
      3 S          62.3767   84.6102   11.6958 S.2     1  UNL1       -0.0915
      4 C          62.2134   86.0181   11.2047 C.ar    1  UNL1        0.0288
      5 C          61.4833   86.5919   10.0267 C.ar    1  UNL1        0.0065
      6 C          61.4973   88.0721    9.7841 C.ar    1  UNL1        0.0005
      7 C          62.2414   88.9784   10.7195 C.ar    1  UNL1        0.0000
      8 C          62.9714   88.4046   11.8975 C.ar    1  UNL1        0.0002
      9 C          62.9574   86.9245   12.1401 C.ar    1  UNL1        0.0025
     10 C          64.4159   86.5723   14.3523 C.3     1  UNL1        0.0657
     11 C          65.5395   85.7304   14.8804 C.3     1  UNL1        0.0111
     12 C          63.2566   88.0034   16.1847 C.ar    1  UNL1        0.1525
     13 C          62.9685   89.3408   16.7997 C.ar    1  UNL1        0.0397
     14 C          63.5516   90.5846   16.1973 C.ar    1  UNL1        0.0238
     15 C          64.4229   90.4910   14.9799 C.ar    1  UNL1        0.0987
     16 N          64.7109   89.1535   14.3649 N.ar    1  UNL1       -0.2448
     17 C          64.1278   87.9097   14.9673 C.ar    1  UNL1        0.0965
     18 C          62.7037   86.5609   18.2737 C.3     1  UNL1        0.2525
     19 O          62.6734   86.7596   16.7872 O.3     1  UNL1       -0.4702
     20 C          63.6350   83.4606   13.7549 C.3     1  UNL1        0.0499
     21 C          62.5954   82.6190   14.4338 C.3     1  UNL1        0.0774
     22 N          62.0472   81.4042   13.7456 N.3     1  UNL1       -0.2700
     23 C          60.7096   80.8553   14.1453 C.3     1  UNL1        0.0897
     24 C          62.8364   80.7383   12.6576 C.3     1  UNL1        0.0897
@<TRIPOS>BOND
     1    18    19    1
     2    19    12    1
     3    12    13   ar
     4    13    14   ar
     5    14    15   ar
     6    15    16   ar
     7    16    17   ar
     8    17    10    1
     9    10    11    1
    10    10     1    1
    11     1     2   ar
    12     2    20    1
    13    20    21    1
    14    21    22    1
    15    22    23    1
    16    22    24    1
    17     2     3   ar
    18     3     4   ar
    19     4     5   ar
    20     5     6   ar
    21     6     7   ar
    22     7     8   ar
    23     8     9   ar
    24    17    12   ar
    25     9     1   ar
    26     9     4   ar
@<TRIPOS>MOLECULE
*****
 24 26 0 0 0
SMALL
GASTEIGER

@<TRIPOS>ATOM
      1 C          63.3559   90.0687   12.7896 C.ar    1  UNL1       -0.0143
      2 C          63.9365   89.7813   14.1425 C.ar    1  UNL1        0.0051
      3 S          65.1297   90.6700   14.3331 S.2     1  UNL1       -0.0915
      4 C          65.2867   91.5066   13.0980 C.ar    1  UNL1        0.0288
      5 C          66.2862   92.5588   12.7187 C.ar    1  UNL1        0.0065
      6 C          66.1894   93.2393   11.3855 C.ar    1  UNL1        0.0005
      7 C          65.0930   92.8677   10.4316 C.ar    1  UNL1        0.0000
      8 C          64.0935   91.8155   10.8108 C.ar    1  UNL1        0.0002
      9 C          64.1903   91.1350   12.1440 C.ar    1  UNL1        0.0025
     10 C          62.1522   89.4062   12.1879 C.3     1  UNL1        0.0657
     11 C          60.8111   90.0738   12.2659 C.3     1  UNL1        0.0111
     12 C          61.9466   87.9378   10.0544 C.ar    1  UNL1        0.1525
     13 C          62.0839   86.6077    9.3748 C.ar    1  UNL1        0.0397
     14 C          62.5638   85.4158   10.1488 C.ar    1  UNL1        0.0238
     15 C          62.9065   85.5541   11.6026 C.ar    1  UNL1        0.0987
     16 N          62.7693   86.8842   12.2823 N.ar    1  UNL1       -0.2448
     17 C          62.2894   88.0761   11.5082 C.ar    1  UNL1        0.0965
     18 C          60.1274   89.0960    8.6056 C.3     1  UNL1        0.2525
     19 O          61.4667   89.1296    9.2803 O.3     1  UNL1       -0.4702
     20 C          63.4153   88.7809   15.1312 C.3     1  UNL1        0.0499
     21 C          64.1295   87.4763   15.3255 C.3     1  UNL1        0.0774
     22 N          63.4574   86.3558   16.0622 N.3     1  UNL1       -0.2700
     23 C          63.4540   84.9725   15.4821 C.3     1  UNL1        0.0897
     24 C          62.7888   86.6185   17.3790 C.3     1  UNL1        0.0897
@<TRIPOS>BOND
     1    18    19    1
     2    19    12    1
     3    12    13   ar
     4    13    14   ar
     5    14    15   ar
     6    15    16   ar
     7    16    17   ar
     8    17    10    1
     9    10    11    1
    10    10     1    1
    11     1     2   ar
    12     2    20    1
    13    20    21    1
    14    21    22    1
    15    22    23    1
    16    22    24    1
    17     2     3   ar
    18     3     4   ar
    19     4     5   ar
    20     5     6   ar
    21     6     7   ar
    22     7     8   ar
    23     8     9   ar
    24    17    12   ar
    25     9     1   ar
    26     9     4   ar
@<TRIPOS>MOLECULE
*****
 24 26 0 0 0
SMALL
GASTEIGER

@<TRIPOS>ATOM
      1 C          62.9142   86.7454   12.1703 C.ar    1  UNL1       -0.0143
      2 C          63.6620   87.5142   13.2189 C.ar    1  UNL1        0.0051
      3 S          64.2349   86.5298   14.1950 S.2     1  UNL1       -0.0915
      4 C          63.8411   85.1526   13.7496 C.ar    1  UNL1        0.0288
      5 C          64.1203   83.7945   14.3218 C.ar    1  UNL1        0.0065
      6 C          63.5833   82.5697   13.6426 C.ar    1  UNL1        0.0005
      7 C          62.7670   82.7030   12.3912 C.ar    1  UNL1        0.0000
      8 C          62.4878   84.0611   11.8190 C.ar    1  UNL1        0.0002
      9 C          63.0248   85.2859   12.4982 C.ar    1  UNL1        0.0025
     10 C          62.1839   87.3330   10.9992 C.3     1  UNL1        0.0657
     11 C          62.4635   86.8326    9.6130 C.3     1  UNL1        0.0111
     12 C          61.4509   89.8099   10.7197 C.ar    1  UNL1        0.1525
     13 C          60.4409   90.8978   10.9348 C.ar    1  UNL1        0.0397
     14 C          59.1540   90.5971   11.6442 C.ar    1  UNL1        0.0238
     15 C          58.8770   89.2082   12.1387 C.ar    1  UNL1        0.0987
     16 N          59.8870   88.1202   11.9237 N.ar    1  UNL1       -0.2448
     17 C          61.1740   88.4210   11.2142 C.ar    1  UNL1        0.0965
     18 C          63.4272   91.4243   10.2322 C.3     1  UNL1        0.2525
     19 O          62.7378   90.1107   10.0103 O.3     1  UNL1       -0.4702
     20 C          63.8109   89.0055   13.2807 C.3     1  UNL1        0.0499
     21 C          62.9399   89.8087   14.2006 C.3     1  UNL1        0.0774
     22 N          63.3969   90.1038   15.5985 N.3     1  UNL1       -0.2700
     23 C          63.0460   89.1664   16.7158 C.3     1  UNL1        0.0897
     24 C          64.2046   91.3361   15.8792 C.3     1  UNL1        0.0897
@<TRIPOS>BOND
     1    18    19    1
     2    19    12    1
     3    12    13   ar
     4    13    14   ar
     5    14    15   ar
     6    15    16   ar
     7    16    17   ar
     8    17    10    1
     9    10    11    1
    10    10     1    1
    11     1     2   ar
    12     2    20    1
    13    20    21    1
    14    21    22    1
    15    22    23    1
    16    22    24    1
    17     2     3   ar
    18     3     4   ar
    19     4     5   ar
    20     5     6   ar
    21     6     7   ar
    22     7     8   ar
    23     8     9   ar
    24    17    12   ar
    25     9     1   ar
    26     9     4   ar
@<TRIPOS>MOLECULE
*****
 24 26 0 0 0
SMALL
GASTEIGER

@<TRIPOS>ATOM
      1 C          63.2595   88.8716   12.2306 C.ar    1  UNL1       -0.0143
      2 C          63.8248   89.8019   13.2625 C.ar    1  UNL1        0.0051
      3 S          64.2840   88.9771   14.4282 S.2     1  UNL1       -0.0915
      4 C          64.0025   87.5370   14.1167 C.ar    1  UNL1        0.0288
      5 C          64.2409   86.2767   14.8943 C.ar    1  UNL1        0.0065
      6 C          63.8461   84.9512   14.3137 C.ar    1  UNL1        0.0005
      7 C          63.2129   84.8860   12.9555 C.ar    1  UNL1        0.0000
      8 C          62.9745   86.1463   12.1779 C.ar    1  UNL1        0.0002
      9 C          63.3693   87.4718   12.7585 C.ar    1  UNL1        0.0025
     10 C          62.6851   89.2709   10.9037 C.3     1  UNL1        0.0657
     11 C          62.9390   90.6455   10.3596 C.3     1  UNL1        0.0111
     12 C          60.3631   88.4298   10.0970 C.ar    1  UNL1        0.1525
     13 C          59.5349   87.4545    9.3141 C.ar    1  UNL1        0.0397
     14 C          60.2004   86.3452    8.5550 C.ar    1  UNL1        0.0238
     15 C          61.6942   86.2110    8.5787 C.ar    1  UNL1        0.0987
     16 N          62.5224   87.1863    9.3616 N.ar    1  UNL1       -0.2448
     17 C          61.8569   88.2957   10.1208 C.ar    1  UNL1        0.0965
     18 C          59.2813   89.3280   12.2817 C.3     1  UNL1        0.2525
     19 O          59.6975   89.5391   10.8562 O.3     1  UNL1       -0.4702
     20 C          63.9151   91.2948   13.1487 C.3     1  UNL1        0.0499
     21 C          65.2520   91.9551   12.9853 C.3     1  UNL1        0.0774
     22 N          65.8536   92.7228   14.1248 N.3     1  UNL1       -0.2700
     23 C          65.6914   92.2276   15.5314 C.3     1  UNL1        0.0897
     24 C          66.6175   93.9858   13.8578 C.3     1  UNL1        0.0897
@<TRIPOS>BOND
     1    18    19    1
     2    19    12    1
     3    12    13   ar
     4    13    14   ar
     5    14    15   ar
     6    15    16   ar
     7    16    17   ar
     8    17    10    1
     9    10    11    1
    10    10     1    1
    11     1     2   ar
    12     2    20    1
    13    20    21    1
    14    21    22    1
    15    22    23    1
    16    22    24    1
    17     2     3   ar
    18     3     4   ar
    19     4     5   ar
    20     5     6   ar
    21     6     7   ar
    22     7     8   ar
    23     8     9   ar
    24    17    12   ar
    25     9     1   ar
    26     9     4   ar
@<TRIPOS>MOLECULE
*****
 24 26 0 0 0
SMALL
GASTEIGER

@<TRIPOS>ATOM
      1 C          63.3388   86.0922   12.8119 C.ar    1  UNL1       -0.0143
      2 C          63.8752   85.3220   13.9820 C.ar    1  UNL1        0.0051
      3 S          64.4294   86.3056   14.9695 S.2     1  UNL1       -0.0915
      4 C          64.2356   87.6837   14.4098 C.ar    1  UNL1        0.0288
      5 C          64.5858   89.0416   14.9422 C.ar    1  UNL1        0.0065
      6 C          64.2620   90.2676   14.1410 C.ar    1  UNL1        0.0005
      7 C          63.5879   90.1357   12.8075 C.ar    1  UNL1        0.0000
      8 C          63.2377   88.7778   12.2751 C.ar    1  UNL1        0.0002
      9 C          63.5616   87.5518   13.0763 C.ar    1  UNL1        0.0025
     10 C          62.6930   85.5058   11.5916 C.3     1  UNL1        0.0657
     11 C          62.9770   84.0853   11.2020 C.3     1  UNL1        0.0111
     12 C          61.9178   86.3752    9.2693 C.ar    1  UNL1        0.1525
     13 C          60.9880   87.2092    8.4387 C.ar    1  UNL1        0.0397
     14 C          59.9037   88.0076    9.0995 C.ar    1  UNL1        0.0238
     15 C          59.7492   87.9721   10.5911 C.ar    1  UNL1        0.0987
     16 N          60.6790   87.1382   11.4218 N.ar    1  UNL1       -0.2448
     17 C          61.7633   86.3397   10.7609 C.ar    1  UNL1        0.0965
     18 C          62.7157   84.8287    7.3402 C.3     1  UNL1        0.2525
     19 O          63.0021   85.5768    8.6084 O.3     1  UNL1       -0.4702
     20 C          63.8600   83.8301   14.1372 C.3     1  UNL1        0.0499
     21 C          62.5899   83.1286   14.5177 C.3     1  UNL1        0.0774
     22 N          62.3572   81.7114   14.0846 N.3     1  UNL1       -0.2700
     23 C          60.9832   81.1161   14.1733 C.3     1  UNL1        0.0897
     24 C          63.4984   80.8896   13.5630 C.3     1  UNL1        0.0897
@<TRIPOS>BOND
     1    18    19    1
     2    19    12    1
     3    12    13   ar
     4    13    14   ar
     5    14    15   ar
     6    15    16   ar
     7    16    17   ar
     8    17    10    1
     9    10    11    1
    10    10     1    1
    11     1     2   ar
    12     2    20    1
    13    20    21    1
    14    21    22    1
    15    22    23    1
    16    22    24    1
    17     2     3   ar
    18     3     4   ar
    19     4     5   ar
    20     5     6   ar
    21     6     7   ar
    22     7     8   ar
    23     8     9   ar
    24    17    12   ar
    25     9     1   ar
    26     9     4   ar
@<TRIPOS>MOLECULE
*****
 24 26 0 0 0
SMALL
GASTEIGER

@<TRIPOS>ATOM
      1 C          62.2745   88.9755   11.1965 C.ar    1  UNL1       -0.0143
      2 C          62.2187   90.0748   10.1774 C.ar    1  UNL1        0.0051
      3 S          63.1179   91.1824   10.6407 S.2     1  UNL1       -0.0915
      4 C          63.7294   90.7677   11.9461 C.ar    1  UNL1        0.0288
      5 C          64.6936   91.4558   12.8663 C.ar    1  UNL1        0.0065
      6 C          65.1365   90.7800   14.1300 C.ar    1  UNL1        0.0005
      7 C          64.6152   89.4160   14.4736 C.ar    1  UNL1        0.0000
      8 C          63.6511   88.7279   13.5533 C.ar    1  UNL1        0.0002
      9 C          63.2082   89.4037   12.2896 C.ar    1  UNL1        0.0025
     10 C          61.5277   87.6762   11.1336 C.3     1  UNL1        0.0657
     11 C          60.1193   87.5951   11.6434 C.3     1  UNL1        0.0111
     12 C          62.5911   85.3287   11.4627 C.ar    1  UNL1        0.1525
     13 C          63.2526   84.1104   10.8899 C.ar    1  UNL1        0.0397
     14 C          63.5122   84.0212    9.4153 C.ar    1  UNL1        0.0238
     15 C          63.1103   85.1503    8.5133 C.ar    1  UNL1        0.0987
     16 N          62.4488   86.3687    9.0861 N.ar    1  UNL1       -0.2448
     17 C          62.1892   86.4579   10.5608 C.ar    1  UNL1        0.0965
     18 C          62.8057   84.3256   13.8497 C.3     1  UNL1        0.2525
     19 O          62.3316   85.4178   12.9374 O.3     1  UNL1       -0.4702
     20 C          61.4063   90.0677    8.9164 C.3     1  UNL1        0.0499
     21 C          60.0370   89.4553    8.9099 C.3     1  UNL1        0.0774
     22 N          59.5264   88.7732    7.6754 N.3     1  UNL1       -0.2700
     23 C          59.1939   87.3109    7.7097 C.3     1  UNL1        0.0897
     24 C          59.3483   89.5533    6.4067 C.3     1  UNL1        0.0897
@<TRIPOS>BOND
     1    18    19    1
     2    19    12    1
     3    12    13   ar
     4    13    14   ar
     5    14    15   ar
     6    15    16   ar
     7    16    17   ar
     8    17    10    1
     9    10    11    1
    10    10     1    1
    11     1     2   ar
    12     2    20    1
    13    20    21    1
    14    21    22    1
    15    22    23    1
    16    22    24    1
    17     2     3   ar
    18     3     4   ar
    19     4     5   ar
    20     5     6   ar
    21     6     7   ar
    22     7     8   ar
    23     8     9   ar
    24    17    12   ar
    25     9     1   ar
    26     9     4   ar
@<TRIPOS>MOLECULE
*****
 24 26 0 0 0
SMALL
GASTEIGER

@<TRIPOS>ATOM
      1 C          61.2697   88.4877   10.4291 C.ar    1  UNL1       -0.0143
      2 C          60.6717   88.3236    9.0632 C.ar    1  UNL1        0.0051
      3 S          60.9160   86.9126    8.6169 S.2     1  UNL1       -0.0915
      4 C          61.6649   86.2046    9.7068 C.ar    1  UNL1        0.0288
      5 C          62.1760   84.7993    9.8240 C.ar    1  UNL1        0.0065
      6 C          62.9058   84.3675   11.0613 C.ar    1  UNL1        0.0005
      7 C          63.1244   85.3410   12.1813 C.ar    1  UNL1        0.0000
      8 C          62.6133   86.7463   12.0641 C.ar    1  UNL1        0.0002
      9 C          61.8836   87.1781   10.8268 C.ar    1  UNL1        0.0025
     10 C          61.2563   89.7414   11.2526 C.3     1  UNL1        0.0657
     11 C          59.9796   90.2086   11.8867 C.3     1  UNL1        0.0111
     12 C          63.2043   90.5367   12.7766 C.ar    1  UNL1        0.1525
     13 C          64.4675   91.3233   12.9660 C.ar    1  UNL1        0.0397
     14 C          65.0457   92.1009   11.8211 C.ar    1  UNL1        0.0238
     15 C          64.3607   92.0921   10.4866 C.ar    1  UNL1        0.0987
     16 N          63.0976   91.3055   10.2971 N.ar    1  UNL1       -0.2448
     17 C          62.5194   90.5278   11.4421 C.ar    1  UNL1        0.0965
     18 C          63.3393   89.7246   15.2408 C.3     1  UNL1        0.2525
     19 O          62.6262   89.7591   13.9216 O.3     1  UNL1       -0.4702
     20 C          59.9553   89.3843    8.2812 C.3     1  UNL1        0.0499
     21 C          59.4061   89.0711    6.9209 C.3     1  UNL1        0.0774
     22 N          59.2274   90.1679    5.9134 N.3     1  UNL1       -0.2700
     23 C          57.8557   90.6977    5.6169 C.3     1  UNL1        0.0897
     24 C          60.4203   90.7349    5.2025 C.3     1  UNL1        0.0897
@<TRIPOS>BOND
     1    18    19    1
     2    19    12    1
     3    12    13   ar
     4    13    14   ar
     5    14    15   ar
     6    15    16   ar
     7    16    17   ar
     8    17    10    1
     9    10    11    1
    10    10     1    1
    11     1     2   ar
    12     2    20    1
    13    20    21    1
    14    21    22    1
    15    22    23    1
    16    22    24    1
    17     2     3   ar
    18     3     4   ar
    19     4     5   ar
    20     5     6   ar
    21     6     7   ar
    22     7     8   ar
    23     8     9   ar
    24    17    12   ar
    25     9     1   ar
    26     9     4   ar
