@<TRIPOS>MOLECULE
*****
 31 36 0 0 0
SMALL
GASTEIGER

@<TRIPOS>ATOM
      1 N          72.0786   76.4476   13.5334 N.pl3   1  UNL1       -0.3075
      2 C          70.8028   76.2734   14.3028 C.3     1  UNL1        0.0908
      3 C          70.6769   75.1648   15.3053 C.3     1  UNL1        0.0237
      4 C          71.8268   74.2303   15.5386 C.3     1  UNL1        0.0285
      5 C          73.1027   74.4045   14.7692 C.3     1  UNL1        0.0237
      6 C          73.2287   75.5131   13.7667 C.3     1  UNL1        0.0908
      7 C          71.7009   73.1217   16.5411 C.3     1  UNL1        0.1117
      8 C          71.6152   71.6569   16.2297 C.ar    1  UNL1        0.0272
      9 C          71.6272   70.9042   14.9323 C.ar    1  UNL1        0.1379
     10 F          71.7425   71.6479   13.6348 F       1  UNL1       -0.2044
     11 C          71.5240   69.4077   14.9324 C.ar    1  UNL1        0.0294
     12 C          71.4087   68.6641   16.2300 C.ar    1  UNL1        0.0023
     13 C          71.3967   69.4167   17.5274 C.ar    1  UNL1        0.0014
     14 C          71.4999   70.9132   17.5273 C.ar    1  UNL1        0.0173
     15 C          71.5144   71.9183   18.6406 C.ar    1  UNL1        0.0804
     16 C          71.4521   72.0799   20.1306 C.ar    1  UNL1        0.1178
     17 N          71.5378   73.5447   20.4419 N.ar    1  UNL1       -0.2223
     18 C          71.6531   74.2884   19.1444 C.ar    1  UNL1        0.1788
     19 N          71.6386   73.2833   18.0311 N.ar    1  UNL1       -0.3069
     20 C          72.4564   79.7734   10.5257 C.ar    1  UNL1        0.0031
     21 C          72.8164   78.3692   10.1404 C.ar    1  UNL1        0.0014
     22 C          72.6905   77.2606   11.1429 C.ar    1  UNL1        0.0145
     23 C          72.2046   77.5562   12.5309 C.ar    1  UNL1        0.0478
     24 C          71.8445   78.9604   12.9163 C.ar    1  UNL1        0.0145
     25 C          71.9704   80.0690   11.9138 C.ar    1  UNL1        0.0014
     26 C          71.9729   82.6321    6.1127 C.3     1  UNL1        0.1538
     27 N          72.3601   82.1960    7.4948 N.ar    1  UNL1       -0.2473
     28 C          71.9833   80.8994    8.1482 C.ar    1  UNL1        0.0967
     29 C          72.5823   80.8820    9.5232 C.ar    1  UNL1        0.0396
     30 C          73.3294   82.1678    9.7198 C.ar    1  UNL1        0.1216
     31 N          73.1920   82.9799    8.4661 N.ar    1  UNL1       -0.1676
@<TRIPOS>BOND
     1    26    27    1
     2    27    28   ar
     3    28    29   ar
     4    29    20    1
     5    20    21   ar
     6    21    22   ar
     7    22    23   ar
     8    23     1    1
     9     1     2    1
    10     2     3    1
    11     3     4    1
    12     7     4    1
    13     7     8    1
    14     8     9   ar
    15     9    10    1
    16     9    11   ar
    17    11    12   ar
    18    12    13   ar
    19    13    14   ar
    20    14    15    1
    21    15    16   ar
    22    16    17   ar
    23    17    18   ar
    24    18    19   ar
    25     4     5    1
    26     5     6    1
    27    23    24   ar
    28    24    25   ar
    29    29    30   ar
    30    30    31   ar
    31    31    27   ar
    32    25    20   ar
    33     6     1    1
    34    19     7    1
    35    14     8   ar
    36    19    15   ar
@<TRIPOS>MOLECULE
*****
 31 36 0 0 0
SMALL
GASTEIGER

@<TRIPOS>ATOM
      1 N          72.3222   75.8770   12.5994 N.pl3   1  UNL1       -0.3075
      2 C          72.8072   75.9348   14.0176 C.3     1  UNL1        0.0908
      3 C          72.7508   74.7088   14.8801 C.3     1  UNL1        0.0237
      4 C          72.2095   73.4251   14.3244 C.3     1  UNL1        0.0285
      5 C          71.7245   73.3672   12.9061 C.3     1  UNL1        0.0237
      6 C          71.7808   74.5932   12.0436 C.3     1  UNL1        0.0908
      7 C          72.1532   72.1991   15.1869 C.3     1  UNL1        0.1117
      8 C          71.5219   72.1044   16.5444 C.ar    1  UNL1        0.0272
      9 C          70.8105   73.1159   17.3933 C.ar    1  UNL1        0.1379
     10 F          70.6357   74.5208   16.8979 F       1  UNL1       -0.2044
     11 C          70.2740   72.7224   18.7377 C.ar    1  UNL1        0.0294
     12 C          70.4489   71.3175   19.2330 C.ar    1  UNL1        0.0023
     13 C          71.1603   70.3059   18.3841 C.ar    1  UNL1        0.0014
     14 C          71.6968   70.6994   17.0398 C.ar    1  UNL1        0.0173
     15 C          72.4361   69.9258   15.9885 C.ar    1  UNL1        0.0804
     16 C          73.0011   68.5794   15.6451 C.ar    1  UNL1        0.1178
     17 N          73.6323   68.6742   14.2877 N.ar    1  UNL1       -0.2223
     18 C          73.4574   70.0792   13.7922 C.ar    1  UNL1        0.1788
     19 N          72.7181   70.8527   14.8434 N.ar    1  UNL1       -0.3069
     20 C          72.4912   79.5548   10.0119 C.ar    1  UNL1        0.0031
     21 C          73.5214   78.4765    9.8509 C.ar    1  UNL1        0.0014
     22 C          73.4651   77.2506   10.7134 C.ar    1  UNL1        0.0145
     23 C          72.3785   77.1029   11.7369 C.ar    1  UNL1        0.0478
     24 C          71.3483   78.1812   11.8980 C.ar    1  UNL1        0.0145
     25 C          71.4046   79.4072   11.0355 C.ar    1  UNL1        0.0014
     26 C          72.0012   82.8262    5.8963 C.3     1  UNL1        0.1538
     27 N          72.3223   82.2844    7.2577 N.ar    1  UNL1       -0.2473
     28 C          72.0759   80.8819    7.7292 C.ar    1  UNL1        0.0967
     29 C          72.5475   80.7807    9.1494 C.ar    1  UNL1        0.0396
     30 C          73.0854   82.1207    9.5559 C.ar    1  UNL1        0.1216
     31 N          72.9462   83.0500    8.3867 N.ar    1  UNL1       -0.1676
@<TRIPOS>BOND
     1    26    27    1
     2    27    28   ar
     3    28    29   ar
     4    29    20    1
     5    20    21   ar
     6    21    22   ar
     7    22    23   ar
     8    23     1    1
     9     1     2    1
    10     2     3    1
    11     3     4    1
    12     7     4    1
    13     7     8    1
    14     8     9   ar
    15     9    10    1
    16     9    11   ar
    17    11    12   ar
    18    12    13   ar
    19    13    14   ar
    20    14    15    1
    21    15    16   ar
    22    16    17   ar
    23    17    18   ar
    24    18    19   ar
    25     4     5    1
    26     5     6    1
    27    23    24   ar
    28    24    25   ar
    29    29    30   ar
    30    30    31   ar
    31    31    27   ar
    32    25    20   ar
    33     6     1    1
    34    19     7    1
    35    14     8   ar
    36    19    15   ar
@<TRIPOS>MOLECULE
*****
 31 36 0 0 0
SMALL
GASTEIGER

@<TRIPOS>ATOM
      1 N          63.8688   87.2307   13.7350 N.pl3   1  UNL1       -0.3075
      2 C          64.8359   87.6913   14.7850 C.3     1  UNL1        0.0908
      3 C          65.3789   89.0890   14.7432 C.3     1  UNL1        0.0237
      4 C          64.9548   90.0260   13.6513 C.3     1  UNL1        0.0285
      5 C          63.9877   89.5653   12.6013 C.3     1  UNL1        0.0237
      6 C          63.4447   88.1677   12.6431 C.3     1  UNL1        0.0908
      7 C          65.4978   91.4236   13.6095 C.3     1  UNL1        0.1117
      8 C          65.4170   92.3664   12.4455 C.ar    1  UNL1        0.0272
      9 C          64.8206   92.2224   11.0768 C.ar    1  UNL1        0.1379
     10 F          64.1515   90.9396   10.6814 F       1  UNL1       -0.2044
     11 C          64.8933   93.3614   10.1033 C.ar    1  UNL1        0.0294
     12 C          65.5625   94.6443   10.4988 C.ar    1  UNL1        0.0023
     13 C          66.1589   94.7883   11.8676 C.ar    1  UNL1        0.0014
     14 C          66.0862   93.6494   12.8410 C.ar    1  UNL1        0.0173
     15 C          66.5805   93.4995   14.2492 C.ar    1  UNL1        0.0804
     16 C          67.2996   94.1998   15.3639 C.ar    1  UNL1        0.1178
     17 N          67.3803   93.2570   16.5278 N.ar    1  UNL1       -0.2223
     18 C          66.7111   91.9740   16.1324 C.ar    1  UNL1        0.1788
     19 N          66.2168   92.1239   14.7242 N.ar    1  UNL1       -0.3069
     20 C          62.2399   83.0377   13.8606 C.ar    1  UNL1        0.0031
     21 C          62.6027   83.7399   15.1354 C.ar    1  UNL1        0.0014
     22 C          63.1457   85.1375   15.0936 C.ar    1  UNL1        0.0145
     23 C          63.3259   85.8330   13.7769 C.ar    1  UNL1        0.0478
     24 C          62.9631   85.1309   12.5019 C.ar    1  UNL1        0.0145
     25 C          62.4201   83.7332   12.5438 C.ar    1  UNL1        0.0014
     26 C          58.9529   78.9415   14.4057 C.3     1  UNL1        0.1538
     27 N          60.1861   79.7573   14.1530 N.ar    1  UNL1       -0.2473
     28 C          60.2852   81.2521   14.2282 C.ar    1  UNL1        0.0967
     29 C          61.6969   81.6401   13.9024 C.ar    1  UNL1        0.0396
     30 C          62.4706   80.3851   13.6258 C.ar    1  UNL1        0.1216
     31 N          61.5367   79.2214   13.7806 N.ar    1  UNL1       -0.1676
@<TRIPOS>BOND
     1    26    27    1
     2    27    28   ar
     3    28    29   ar
     4    29    20    1
     5    20    21   ar
     6    21    22   ar
     7    22    23   ar
     8    23     1    1
     9     1     2    1
    10     2     3    1
    11     3     4    1
    12     7     4    1
    13     7     8    1
    14     8     9   ar
    15     9    10    1
    16     9    11   ar
    17    11    12   ar
    18    12    13   ar
    19    13    14   ar
    20    14    15    1
    21    15    16   ar
    22    16    17   ar
    23    17    18   ar
    24    18    19   ar
    25     4     5    1
    26     5     6    1
    27    23    24   ar
    28    24    25   ar
    29    29    30   ar
    30    30    31   ar
    31    31    27   ar
    32    25    20   ar
    33     6     1    1
    34    19     7    1
    35    14     8   ar
    36    19    15   ar
@<TRIPOS>MOLECULE
*****
 31 36 0 0 0
SMALL
GASTEIGER

@<TRIPOS>ATOM
      1 N          61.2071   87.0443    9.8348 N.pl3   1  UNL1       -0.3075
      2 C          60.7756   87.2283   11.2595 C.3     1  UNL1        0.0908
      3 C          61.3080   86.3198   12.3277 C.3     1  UNL1        0.0237
      4 C          62.2720   85.2273   11.9712 C.3     1  UNL1        0.0285
      5 C          62.7035   85.0432   10.5464 C.3     1  UNL1        0.0237
      6 C          62.1711   85.9518    9.4782 C.3     1  UNL1        0.0908
      7 C          62.8044   84.3187   13.0394 C.3     1  UNL1        0.1117
      8 C          62.8786   82.8222   12.9677 C.ar    1  UNL1        0.0272
      9 C          62.4791   81.8475   11.8998 C.ar    1  UNL1        0.1379
     10 F          61.8816   82.3439   10.6167 F       1  UNL1       -0.2044
     11 C          62.6773   80.3763   12.1151 C.ar    1  UNL1        0.0294
     12 C          63.2749   79.8799   13.3982 C.ar    1  UNL1        0.0023
     13 C          63.6743   80.8546   14.4661 C.ar    1  UNL1        0.0014
     14 C          63.4762   82.3258   14.2508 C.ar    1  UNL1        0.0173
     15 C          63.7713   83.5154   15.1155 C.ar    1  UNL1        0.0804
     16 C          64.3231   83.9437   16.4430 C.ar    1  UNL1        0.1178
     17 N          64.2489   85.4402   16.5146 N.ar    1  UNL1       -0.2223
     18 C          63.6513   85.9367   15.2315 C.ar    1  UNL1        0.1788
     19 N          63.3561   84.7471   14.3668 N.ar    1  UNL1       -0.3069
     20 C          59.6098   89.7700    6.6301 C.ar    1  UNL1        0.0031
     21 C          60.3802   90.3399    7.7841 C.ar    1  UNL1        0.0014
     22 C          60.9126   89.4314    8.8523 C.ar    1  UNL1        0.0145
     23 C          60.6747   87.9529    8.7665 C.ar    1  UNL1        0.0478
     24 C          59.9043   87.3829    7.6125 C.ar    1  UNL1        0.0145
     25 C          59.3719   88.2914    6.5443 C.ar    1  UNL1        0.0014
     26 C          59.3433   93.0461    2.4977 C.3     1  UNL1        0.1538
     27 N          58.9549   92.1844    3.6625 N.ar    1  UNL1       -0.2473
     28 C          59.8919   91.3869    4.5205 C.ar    1  UNL1        0.0967
     29 C          59.0774   90.6785    5.5619 C.ar    1  UNL1        0.0396
     30 C          57.6370   91.0381    5.3478 C.ar    1  UNL1        0.1216
     31 N          57.5613   91.9688    4.1738 N.ar    1  UNL1       -0.1676
@<TRIPOS>BOND
     1    26    27    1
     2    27    28   ar
     3    28    29   ar
     4    29    20    1
     5    20    21   ar
     6    21    22   ar
     7    22    23   ar
     8    23     1    1
     9     1     2    1
    10     2     3    1
    11     3     4    1
    12     7     4    1
    13     7     8    1
    14     8     9   ar
    15     9    10    1
    16     9    11   ar
    17    11    12   ar
    18    12    13   ar
    19    13    14   ar
    20    14    15    1
    21    15    16   ar
    22    16    17   ar
    23    17    18   ar
    24    18    19   ar
    25     4     5    1
    26     5     6    1
    27    23    24   ar
    28    24    25   ar
    29    29    30   ar
    30    30    31   ar
    31    31    27   ar
    32    25    20   ar
    33     6     1    1
    34    19     7    1
    35    14     8   ar
    36    19    15   ar
