@<TRIPOS>MOLECULE
*****
 28 31 0 0 0
SMALL
GASTEIGER

@<TRIPOS>ATOM
      1 C          62.3245   86.9167   17.9524 C.3     1  UNL1        0.0233
      2 C          63.0797   87.5198   16.8052 C.3     1  UNL1        0.0956
      3 C          63.1980   89.0103   16.6859 C.3     1  UNL1        0.1135
      4 N          63.9532   89.6134   15.5388 N.am    1  UNL1       -0.2726
      5 C          64.0715   91.1040   15.4196 C.2     1  UNL1        0.2491
      6 O          63.4346   91.9915   16.4475 O.2     1  UNL1       -0.2699
      7 C          64.5901   88.7259   14.5108 C.3     1  UNL1        0.1152
      8 C          64.4717   87.2353   14.6300 C.3     1  UNL1        0.1153
      9 N          63.7166   86.6323   15.7772 N.am    1  UNL1       -0.2716
     10 C          63.5982   85.1417   15.8965 C.2     1  UNL1        0.2883
     11 O          62.8431   84.5387   17.0437 O.2     1  UNL1       -0.2664
     12 C          64.8266   91.7070   14.2724 C.ar    1  UNL1        0.0536
     13 C          64.2859   91.5964   12.8776 C.ar    1  UNL1        0.0045
     14 C          65.0411   92.1995   11.7304 C.ar    1  UNL1        0.0001
     15 C          66.3370   92.9131   11.9780 C.ar    1  UNL1        0.0000
     16 C          66.8777   93.0236   13.3727 C.ar    1  UNL1        0.0001
     17 C          66.1226   92.4206   14.5199 C.ar    1  UNL1        0.0045
     18 C          64.2351   84.2541   14.8685 C.2     1  UNL1        0.2502
     19 O          65.6878   84.4181   14.5327 O.2     1  UNL1       -0.2816
     20 C          63.4193   83.2028   14.1764 C.2     1  UNL1        0.0653
     21 C          62.2479   82.4698   14.7600 C.2     1  UNL1        0.1018
     22 N          61.7362   81.5138   13.7235 N.2     1  UNL1       -0.2476
     23 C          62.5915   81.6559   12.4994 C.2     1  UNL1        0.0666
     24 C          62.5574   80.9697   11.1660 C.3     1  UNL1        0.0927
     25 C          63.5636   81.3273   10.1126 C.2     1  UNL1        0.0788
     26 N          64.6038   82.3712   10.3925 N.2     1  UNL1       -0.2465
     27 C          64.6378   83.0574   11.7259 C.2     1  UNL1        0.0998
     28 C          63.6317   82.6998   12.7793 C.2     1  UNL1        0.0378
@<TRIPOS>BOND
     1     2     1    1
     2     2     3    1
     3     3     4    1
     4     4     5   am
     5     5     6    2
     6     5    12    1
     7    12    13   ar
     8    13    14   ar
     9    14    15   ar
    10    15    16   ar
    11    16    17   ar
    12     4     7    1
    13     7     8    1
    14     8     9    1
    15     9    10   am
    16    10    11    2
    17    10    18    1
    18    18    19    2
    19    18    20    1
    20    20    21    2
    21    21    22    1
    22    22    23    2
    23    23    24    1
    24    24    25    1
    25    25    26    2
    26    26    27    1
    27    27    28    2
    28     9     2    1
    29    28    20    1
    30    17    12   ar
    31    28    23    1
@<TRIPOS>MOLECULE
*****
 28 31 0 0 0
SMALL
GASTEIGER

@<TRIPOS>ATOM
      1 C          62.9614   89.9621   14.7134 C.3     1  UNL1        0.0233
      2 C          63.4415   90.5992   13.4431 C.3     1  UNL1        0.0956
      3 C          64.7985   91.2363   13.3898 C.3     1  UNL1        0.1135
      4 N          65.2786   91.8733   12.1195 N.am    1  UNL1       -0.2726
      5 C          66.6356   92.5104   12.0663 C.2     1  UNL1        0.2491
      6 O          67.5125   92.5103   13.2833 O.2     1  UNL1       -0.2699
      7 C          64.4018   91.8734   10.9025 C.3     1  UNL1        0.1152
      8 C          63.0449   91.2364   10.9558 C.3     1  UNL1        0.1153
      9 N          62.5648   90.5993   12.2261 N.am    1  UNL1       -0.2716
     10 C          61.2078   89.9623   12.2794 C.2     1  UNL1        0.2883
     11 O          60.7277   89.3252   13.5497 O.2     1  UNL1       -0.2664
     12 C          67.1157   93.1474   10.7961 C.ar    1  UNL1        0.0536
     13 C          66.7416   94.5652   10.4800 C.ar    1  UNL1        0.0045
     14 C          67.2217   95.2023    9.2097 C.ar    1  UNL1        0.0001
     15 C          68.0760   94.4216    8.2554 C.ar    1  UNL1        0.0000
     16 C          68.4501   93.0038    8.5715 C.ar    1  UNL1        0.0001
     17 C          67.9700   92.3667    9.8417 C.ar    1  UNL1        0.0045
     18 C          60.3309   89.9623   11.0623 C.2     1  UNL1        0.2502
     19 O          59.2705   91.0110   10.9021 O.2     1  UNL1       -0.2816
     20 C          60.5145   88.9136   10.0056 C.2     1  UNL1        0.0653
     21 C          59.9400   88.9477    8.6204 C.2     1  UNL1        0.1018
     22 N          60.3752   87.7019    7.9074 N.2     1  UNL1       -0.2476
     23 C          61.2188   86.8979    8.8518 C.2     1  UNL1        0.0666
     24 C          61.9196   85.5806    8.6985 C.3     1  UNL1        0.0927
     25 C          62.7065   85.0122    9.8421 C.2     1  UNL1        0.0788
     26 N          62.7925   85.7611   11.1389 N.2     1  UNL1       -0.2465
     27 C          62.0917   87.0784   11.2922 C.2     1  UNL1        0.0998
     28 C          61.3048   87.6468   10.1486 C.2     1  UNL1        0.0378
@<TRIPOS>BOND
     1     2     1    1
     2     2     3    1
     3     3     4    1
     4     4     5   am
     5     5     6    2
     6     5    12    1
     7    12    13   ar
     8    13    14   ar
     9    14    15   ar
    10    15    16   ar
    11    16    17   ar
    12     4     7    1
    13     7     8    1
    14     8     9    1
    15     9    10   am
    16    10    11    2
    17    10    18    1
    18    18    19    2
    19    18    20    1
    20    20    21    2
    21    21    22    1
    22    22    23    2
    23    23    24    1
    24    24    25    1
    25    25    26    2
    26    26    27    1
    27    27    28    2
    28     9     2    1
    29    28    20    1
    30    17    12   ar
    31    28    23    1
@<TRIPOS>MOLECULE
*****
 28 31 0 0 0
SMALL
GASTEIGER

@<TRIPOS>ATOM
      1 C          63.3899   90.3104   15.2911 C.3     1  UNL1        0.0233
      2 C          63.8092   90.7893   13.9328 C.3     1  UNL1        0.0956
      3 C          65.1176   91.5021   13.7598 C.3     1  UNL1        0.1135
      4 N          65.5369   91.9810   12.4016 N.am    1  UNL1       -0.2726
      5 C          66.8453   92.6938   12.2286 C.2     1  UNL1        0.2491
      6 O          67.7345   92.9277   13.4138 O.2     1  UNL1       -0.2699
      7 C          64.6478   91.7472   11.2163 C.3     1  UNL1        0.1152
      8 C          63.3394   91.0343   11.3894 C.3     1  UNL1        0.1153
      9 N          62.9201   90.5554   12.7476 N.am    1  UNL1       -0.2716
     10 C          61.6117   89.8426   12.9206 C.2     1  UNL1        0.2883
     11 O          61.1924   89.3637   14.2789 O.2     1  UNL1       -0.2664
     12 C          67.2646   93.1727   10.8704 C.ar    1  UNL1        0.0536
     13 C          68.0913   92.2878    9.9852 C.ar    1  UNL1        0.0045
     14 C          68.5106   92.7667    8.6270 C.ar    1  UNL1        0.0001
     15 C          68.1032   94.1306    8.1538 C.ar    1  UNL1        0.0000
     16 C          67.2766   95.0155    9.0390 C.ar    1  UNL1        0.0001
     17 C          66.8573   94.5366   10.3972 C.ar    1  UNL1        0.0045
     18 C          60.7225   89.6087   11.7353 C.2     1  UNL1        0.2502
     19 O          59.7666   90.6764   11.2927 O.2     1  UNL1       -0.2816
     20 C          60.7894   88.3071   10.9929 C.2     1  UNL1        0.0653
     21 C          61.3530   87.0202   11.5185 C.2     1  UNL1        0.1018
     22 N          61.2163   85.9816   10.4448 N.2     1  UNL1       -0.2476
     23 C          60.5682   86.6266    9.2557 C.2     1  UNL1        0.0666
     24 C          60.1843   86.0909    7.9083 C.3     1  UNL1        0.0927
     25 C          59.5365   86.9924    6.8996 C.2     1  UNL1        0.0788
     26 N          59.2727   88.4297    7.2383 N.2     1  UNL1       -0.2465
     27 C          59.6566   88.9654    8.5857 C.2     1  UNL1        0.0998
     28 C          60.3044   88.0638    9.5944 C.2     1  UNL1        0.0378
@<TRIPOS>BOND
     1     2     1    1
     2     2     3    1
     3     3     4    1
     4     4     5   am
     5     5     6    2
     6     5    12    1
     7    12    13   ar
     8    13    14   ar
     9    14    15   ar
    10    15    16   ar
    11    16    17   ar
    12     4     7    1
    13     7     8    1
    14     8     9    1
    15     9    10   am
    16    10    11    2
    17    10    18    1
    18    18    19    2
    19    18    20    1
    20    20    21    2
    21    21    22    1
    22    22    23    2
    23    23    24    1
    24    24    25    1
    25    25    26    2
    26    26    27    1
    27    27    28    2
    28     9     2    1
    29    28    20    1
    30    17    12   ar
    31    28    23    1
@<TRIPOS>MOLECULE
*****
 28 31 0 0 0
SMALL
GASTEIGER

@<TRIPOS>ATOM
      1 C          61.5999   88.8511   10.1367 C.3     1  UNL1        0.0233
      2 C          62.5950   89.0235   11.2457 C.3     1  UNL1        0.0956
      3 C          63.2257   90.3631   11.4859 C.3     1  UNL1        0.1135
      4 N          64.2209   90.5356   12.5949 N.am    1  UNL1       -0.2726
      5 C          64.8516   91.8752   12.8351 C.2     1  UNL1        0.2491
      6 O          64.4872   93.0424   11.9662 O.2     1  UNL1       -0.2699
      7 C          64.5853   89.3685   13.4638 C.3     1  UNL1        0.1152
      8 C          63.9546   88.0289   13.2236 C.3     1  UNL1        0.1153
      9 N          62.9595   87.8564   12.1146 N.am    1  UNL1       -0.2716
     10 C          62.3288   86.5168   11.8744 C.2     1  UNL1        0.2883
     11 O          61.3336   86.3444   10.7653 O.2     1  UNL1       -0.2664
     12 C          65.8467   92.0476   13.9441 C.ar    1  UNL1        0.0536
     13 C          65.3744   92.3483   15.3356 C.ar    1  UNL1        0.0045
     14 C          66.3695   92.5207   16.4447 C.ar    1  UNL1        0.0001
     15 C          67.8371   92.3925   16.1622 C.ar    1  UNL1        0.0000
     16 C          68.3094   92.0918   14.7706 C.ar    1  UNL1        0.0001
     17 C          67.3143   91.9194   13.6616 C.ar    1  UNL1        0.0045
     18 C          62.6932   85.3496   12.7433 C.2     1  UNL1        0.2502
     19 O          62.8139   85.5285   14.2276 O.2     1  UNL1       -0.2816
     20 C          62.9369   84.0036   12.1277 C.2     1  UNL1        0.0653
     21 C          63.5445   83.7472   10.7805 C.2     1  UNL1        0.1018
     22 N          63.5989   82.2628   10.5715 N.2     1  UNL1       -0.2476
     23 C          63.0249   81.6019   11.7896 C.2     1  UNL1        0.0666
     24 C          62.8219   80.1593   12.1471 C.3     1  UNL1        0.0927
     25 C          62.2097   79.7927   13.4665 C.2     1  UNL1        0.0788
     26 N          61.8006   80.8686   14.4283 N.2     1  UNL1       -0.2465
     27 C          62.0036   82.3111   14.0707 C.2     1  UNL1        0.0998
     28 C          62.6157   82.6777   12.7514 C.2     1  UNL1        0.0378
@<TRIPOS>BOND
     1     2     1    1
     2     2     3    1
     3     3     4    1
     4     4     5   am
     5     5     6    2
     6     5    12    1
     7    12    13   ar
     8    13    14   ar
     9    14    15   ar
    10    15    16   ar
    11    16    17   ar
    12     4     7    1
    13     7     8    1
    14     8     9    1
    15     9    10   am
    16    10    11    2
    17    10    18    1
    18    18    19    2
    19    18    20    1
    20    20    21    2
    21    21    22    1
    22    22    23    2
    23    23    24    1
    24    24    25    1
    25    25    26    2
    26    26    27    1
    27    27    28    2
    28     9     2    1
    29    28    20    1
    30    17    12   ar
    31    28    23    1
@<TRIPOS>MOLECULE
*****
 28 31 0 0 0
SMALL
GASTEIGER

@<TRIPOS>ATOM
      1 C          64.4581   90.0013   14.6275 C.3     1  UNL1        0.0233
      2 C          64.4669   90.7774   13.3439 C.3     1  UNL1        0.0956
      3 C          65.3130   92.0096   13.2183 C.3     1  UNL1        0.1135
      4 N          65.3217   92.7857   11.9347 N.am    1  UNL1       -0.2726
      5 C          66.1679   94.0179   11.8091 C.2     1  UNL1        0.2491
      6 O          67.0052   94.4740   12.9670 O.2     1  UNL1       -0.2699
      7 C          64.4844   92.3297   10.7767 C.3     1  UNL1        0.1152
      8 C          63.6383   91.0975   10.9024 C.3     1  UNL1        0.1153
      9 N          63.6295   90.3214   12.1860 N.am    1  UNL1       -0.2716
     10 C          62.7834   89.0892   12.3116 C.2     1  UNL1        0.2883
     11 O          62.7747   88.3131   13.5952 O.2     1  UNL1       -0.2664
     12 C          66.1766   94.7940   10.5255 C.ar    1  UNL1        0.0536
     13 C          67.0660   94.3658    9.3962 C.ar    1  UNL1        0.0045
     14 C          67.0748   95.1419    8.1126 C.ar    1  UNL1        0.0001
     15 C          66.1941   96.3463    7.9584 C.ar    1  UNL1        0.0000
     16 C          65.3047   96.7746    9.0877 C.ar    1  UNL1        0.0001
     17 C          65.2960   95.9985   10.3713 C.ar    1  UNL1        0.0045
     18 C          61.9460   88.6331   11.1536 C.2     1  UNL1        0.2502
     19 O          60.7871   89.4660   10.6922 O.2     1  UNL1       -0.2816
     20 C          62.2677   87.3441   10.4572 C.2     1  UNL1        0.0653
     21 C          62.2779   87.1221    8.9737 C.2     1  UNL1        0.1018
     22 N          62.6522   85.6916    8.7217 N.2     1  UNL1       -0.2476
     23 C          62.8732   85.0294   10.0494 C.2     1  UNL1        0.0666
     24 C          63.2602   83.6285   10.4202 C.3     1  UNL1        0.0927
     25 C          63.4095   83.2488   11.8637 C.2     1  UNL1        0.0788
     26 N          63.1719   84.2702   12.9363 N.2     1  UNL1       -0.2465
     27 C          62.7850   85.6711   12.5654 C.2     1  UNL1        0.0998
     28 C          62.6356   86.0507   11.1220 C.2     1  UNL1        0.0378
@<TRIPOS>BOND
     1     2     1    1
     2     2     3    1
     3     3     4    1
     4     4     5   am
     5     5     6    2
     6     5    12    1
     7    12    13   ar
     8    13    14   ar
     9    14    15   ar
    10    15    16   ar
    11    16    17   ar
    12     4     7    1
    13     7     8    1
    14     8     9    1
    15     9    10   am
    16    10    11    2
    17    10    18    1
    18    18    19    2
    19    18    20    1
    20    20    21    2
    21    21    22    1
    22    22    23    2
    23    23    24    1
    24    24    25    1
    25    25    26    2
    26    26    27    1
    27    27    28    2
    28     9     2    1
    29    28    20    1
    30    17    12   ar
    31    28    23    1
@<TRIPOS>MOLECULE
*****
 28 31 0 0 0
SMALL
GASTEIGER

@<TRIPOS>ATOM
      1 C          63.1930   87.6638   17.5474 C.3     1  UNL1        0.0233
      2 C          63.3223   87.0825   16.1707 C.3     1  UNL1        0.0956
      3 C          63.3172   85.5945   15.9814 C.3     1  UNL1        0.1135
      4 N          63.4466   85.0132   14.6047 N.am    1  UNL1       -0.2726
      5 C          63.4415   83.5251   14.4154 C.2     1  UNL1        0.2491
      6 O          63.3070   82.6185   15.6028 O.2     1  UNL1       -0.2699
      7 C          63.5811   85.9198   13.4173 C.3     1  UNL1        0.1152
      8 C          63.5862   87.4078   13.6066 C.3     1  UNL1        0.1153
      9 N          63.4568   87.9891   14.9833 N.am    1  UNL1       -0.2716
     10 C          63.4619   89.4771   15.1727 C.2     1  UNL1        0.2883
     11 O          63.3326   90.0584   16.5494 O.2     1  UNL1       -0.2664
     12 C          63.5709   82.9438   13.0387 C.ar    1  UNL1        0.0536
     13 C          64.5337   83.5449   12.0582 C.ar    1  UNL1        0.0045
     14 C          64.6631   82.9636   10.6815 C.ar    1  UNL1        0.0001
     15 C          63.8296   81.7811   10.2853 C.ar    1  UNL1        0.0000
     16 C          62.8667   81.1800   11.2659 C.ar    1  UNL1        0.0001
     17 C          62.7374   81.7613   12.6426 C.ar    1  UNL1        0.0045
     18 C          63.5964   90.3838   13.9852 C.2     1  UNL1        0.2502
     19 O          62.6163   90.2882   12.8539 O.2     1  UNL1       -0.2816
     20 C          64.7110   91.3861   13.9293 C.2     1  UNL1        0.0653
     21 C          65.5773   91.8064   15.0795 C.2     1  UNL1        0.1018
     22 N          66.5567   92.8240   14.5744 N.2     1  UNL1       -0.2476
     23 C          66.2957   93.0327   13.1121 C.2     1  UNL1        0.0666
     24 C          66.9494   93.9171   12.0921 C.3     1  UNL1        0.0927
     25 C          66.4624   93.9128   10.6734 C.2     1  UNL1        0.0788
     26 N          65.3217   93.0240   10.2747 N.2     1  UNL1       -0.2465
     27 C          64.6680   92.1396   11.2947 C.2     1  UNL1        0.0998
     28 C          65.1550   92.1439   12.7134 C.2     1  UNL1        0.0378
@<TRIPOS>BOND
     1     2     1    1
     2     2     3    1
     3     3     4    1
     4     4     5   am
     5     5     6    2
     6     5    12    1
     7    12    13   ar
     8    13    14   ar
     9    14    15   ar
    10    15    16   ar
    11    16    17   ar
    12     4     7    1
    13     7     8    1
    14     8     9    1
    15     9    10   am
    16    10    11    2
    17    10    18    1
    18    18    19    2
    19    18    20    1
    20    20    21    2
    21    21    22    1
    22    22    23    2
    23    23    24    1
    24    24    25    1
    25    25    26    2
    26    26    27    1
    27    27    28    2
    28     9     2    1
    29    28    20    1
    30    17    12   ar
    31    28    23    1
@<TRIPOS>MOLECULE
*****
 28 31 0 0 0
SMALL
GASTEIGER

@<TRIPOS>ATOM
      1 C          64.6214   90.1241   15.1289 C.3     1  UNL1        0.0233
      2 C          64.1846   88.9045   14.3727 C.3     1  UNL1        0.0956
      3 C          64.3089   87.5481   15.0009 C.3     1  UNL1        0.1135
      4 N          63.8721   86.3285   14.2448 N.am    1  UNL1       -0.2726
      5 C          63.9964   84.9721   14.8731 C.2     1  UNL1        0.2491
      6 O          64.5575   84.8352   16.2574 O.2     1  UNL1       -0.2699
      7 C          63.3110   86.4652   12.8604 C.3     1  UNL1        0.1152
      8 C          63.1867   87.8217   12.2322 C.3     1  UNL1        0.1153
      9 N          63.6235   89.0413   12.9884 N.am    1  UNL1       -0.2716
     10 C          63.4992   90.3977   12.3602 C.2     1  UNL1        0.2883
     11 O          63.9360   91.6173   13.1164 O.2     1  UNL1       -0.2664
     12 C          63.5596   83.7525   14.1169 C.ar    1  UNL1        0.0536
     13 C          64.3037   83.3266   12.8861 C.ar    1  UNL1        0.0045
     14 C          63.8670   82.1070   12.1300 C.ar    1  UNL1        0.0001
     15 C          62.6860   81.3132   12.6046 C.ar    1  UNL1        0.0000
     16 C          61.9419   81.7391   13.8354 C.ar    1  UNL1        0.0001
     17 C          62.3787   82.9587   14.5915 C.ar    1  UNL1        0.0045
     18 C          62.9381   90.5346   10.9758 C.2     1  UNL1        0.2502
     19 O          63.6911   91.3082    9.9345 O.2     1  UNL1       -0.2816
     20 C          61.6240   89.8977   10.6328 C.2     1  UNL1        0.0653
     21 C          60.2675   90.4237   10.9975 C.2     1  UNL1        0.1018
     22 N          59.2409   89.4741   10.4549 N.2     1  UNL1       -0.2476
     23 C          59.9630   88.3612    9.7549 C.2     1  UNL1        0.0666
     24 C          59.4696   87.1432    9.0317 C.3     1  UNL1        0.0927
     25 C          60.4492   86.1871    8.4183 C.2     1  UNL1        0.0788
     26 N          61.9220   86.4489    8.5282 N.2     1  UNL1       -0.2465
     27 C          62.4154   87.6668    9.2515 C.2     1  UNL1        0.0998
     28 C          61.4359   88.6230    9.8649 C.2     1  UNL1        0.0378
@<TRIPOS>BOND
     1     2     1    1
     2     2     3    1
     3     3     4    1
     4     4     5   am
     5     5     6    2
     6     5    12    1
     7    12    13   ar
     8    13    14   ar
     9    14    15   ar
    10    15    16   ar
    11    16    17   ar
    12     4     7    1
    13     7     8    1
    14     8     9    1
    15     9    10   am
    16    10    11    2
    17    10    18    1
    18    18    19    2
    19    18    20    1
    20    20    21    2
    21    21    22    1
    22    22    23    2
    23    23    24    1
    24    24    25    1
    25    25    26    2
    26    26    27    1
    27    27    28    2
    28     9     2    1
    29    28    20    1
    30    17    12   ar
    31    28    23    1
@<TRIPOS>MOLECULE
*****
 28 31 0 0 0
SMALL
GASTEIGER

@<TRIPOS>ATOM
      1 C          64.4289   91.0754   15.6412 C.3     1  UNL1        0.0233
      2 C          64.6161   91.4768   14.2081 C.3     1  UNL1        0.0956
      3 C          65.3384   92.7481   13.8734 C.3     1  UNL1        0.1135
      4 N          65.5255   93.1495   12.4403 N.am    1  UNL1       -0.2726
      5 C          66.2478   94.4209   12.1057 C.2     1  UNL1        0.2491
      6 O          66.7830   95.2909   13.2042 O.2     1  UNL1       -0.2699
      7 C          64.9903   92.2796   11.3418 C.3     1  UNL1        0.1152
      8 C          64.2680   91.0083   11.6764 C.3     1  UNL1        0.1153
      9 N          64.0809   90.6069   13.1095 N.am    1  UNL1       -0.2716
     10 C          63.3586   89.3356   13.4442 C.2     1  UNL1        0.2883
     11 O          63.1715   88.9342   14.8773 O.2     1  UNL1       -0.2664
     12 C          66.4349   94.8223   10.6726 C.ar    1  UNL1        0.0536
     13 C          65.6736   95.9881   10.1147 C.ar    1  UNL1        0.0045
     14 C          65.8608   96.3894    8.6815 C.ar    1  UNL1        0.0001
     15 C          66.8092   95.6250    7.8063 C.ar    1  UNL1        0.0000
     16 C          67.5704   94.4592    8.3642 C.ar    1  UNL1        0.0001
     17 C          67.3833   94.0578    9.7973 C.ar    1  UNL1        0.0045
     18 C          62.8234   88.4655   12.3456 C.2     1  UNL1        0.2502
     19 O          63.3139   87.0557   12.1992 O.2     1  UNL1       -0.2816
     20 C          61.7977   89.0055   11.3935 C.2     1  UNL1        0.0653
     21 C          61.1158   90.3377   11.4947 C.2     1  UNL1        0.1018
     22 N          60.1706   90.4636   10.3368 N.2     1  UNL1       -0.2476
     23 C          60.2682   89.2092    9.5201 C.2     1  UNL1        0.0666
     24 C          59.5714   88.7712    8.2662 C.3     1  UNL1        0.0927
     25 C          59.8802   87.4319    7.6653 C.2     1  UNL1        0.0788
     26 N          60.8858   86.5308    8.3184 N.2     1  UNL1       -0.2465
     27 C          61.5827   86.9688    9.5724 C.2     1  UNL1        0.0998
     28 C          61.2739   88.3081   10.1732 C.2     1  UNL1        0.0378
@<TRIPOS>BOND
     1     2     1    1
     2     2     3    1
     3     3     4    1
     4     4     5   am
     5     5     6    2
     6     5    12    1
     7    12    13   ar
     8    13    14   ar
     9    14    15   ar
    10    15    16   ar
    11    16    17   ar
    12     4     7    1
    13     7     8    1
    14     8     9    1
    15     9    10   am
    16    10    11    2
    17    10    18    1
    18    18    19    2
    19    18    20    1
    20    20    21    2
    21    21    22    1
    22    22    23    2
    23    23    24    1
    24    24    25    1
    25    25    26    2
    26    26    27    1
    27    27    28    2
    28     9     2    1
    29    28    20    1
    30    17    12   ar
    31    28    23    1
@<TRIPOS>MOLECULE
*****
 28 31 0 0 0
SMALL
GASTEIGER

@<TRIPOS>ATOM
      1 C          61.8261   89.9103    9.6831 C.3     1  UNL1        0.0233
      2 C          62.3176   88.8965   10.6733 C.3     1  UNL1        0.0956
      3 C          62.0692   87.4361   10.4376 C.3     1  UNL1        0.1135
      4 N          62.5608   86.4223   11.4279 N.am    1  UNL1       -0.2726
      5 C          62.3124   84.9619   11.1921 C.2     1  UNL1        0.2491
      6 O          61.5724   84.5153    9.9661 O.2     1  UNL1       -0.2699
      7 C          63.3007   86.8689   12.6539 C.3     1  UNL1        0.1152
      8 C          63.5491   88.3293   12.8896 C.3     1  UNL1        0.1153
      9 N          63.0575   89.3430   11.8993 N.am    1  UNL1       -0.2716
     10 C          63.3059   90.8034   12.1350 C.2     1  UNL1        0.2883
     11 O          62.8144   91.8172   11.1448 O.2     1  UNL1       -0.2664
     12 C          62.8039   83.9481   12.1823 C.ar    1  UNL1        0.0536
     13 C          63.7479   82.8680   11.7441 C.ar    1  UNL1        0.0045
     14 C          64.2394   81.8542   12.7344 C.ar    1  UNL1        0.0001
     15 C          63.7870   81.9206   14.1630 C.ar    1  UNL1        0.0000
     16 C          62.8430   83.0007   14.6012 C.ar    1  UNL1        0.0001
     17 C          62.3514   84.0145   13.6109 C.ar    1  UNL1        0.0045
     18 C          64.0459   91.2501   13.3611 C.2     1  UNL1        0.2502
     19 O          63.3700   91.2140   14.6996 O.2     1  UNL1       -0.2816
     20 C          65.4616   91.7327   13.2484 C.2     1  UNL1        0.0653
     21 C          66.2450   91.8782   11.9776 C.2     1  UNL1        0.1018
     22 N          67.6101   92.3900   12.3306 N.2     1  UNL1       -0.2476
     23 C          67.6703   92.5609   13.8196 C.2     1  UNL1        0.0666
     24 C          68.7627   93.0338   14.7323 C.3     1  UNL1        0.0927
     25 C          68.5273   93.1006   16.2121 C.2     1  UNL1        0.0788
     26 N          67.1994   92.6943   16.7794 N.2     1  UNL1       -0.2465
     27 C          66.1070   92.2213   15.8668 C.2     1  UNL1        0.0998
     28 C          66.3425   92.1546   14.3869 C.2     1  UNL1        0.0378
@<TRIPOS>BOND
     1     2     1    1
     2     2     3    1
     3     3     4    1
     4     4     5   am
     5     5     6    2
     6     5    12    1
     7    12    13   ar
     8    13    14   ar
     9    14    15   ar
    10    15    16   ar
    11    16    17   ar
    12     4     7    1
    13     7     8    1
    14     8     9    1
    15     9    10   am
    16    10    11    2
    17    10    18    1
    18    18    19    2
    19    18    20    1
    20    20    21    2
    21    21    22    1
    22    22    23    2
    23    23    24    1
    24    24    25    1
    25    25    26    2
    26    26    27    1
    27    27    28    2
    28     9     2    1
    29    28    20    1
    30    17    12   ar
    31    28    23    1
