@<TRIPOS>MOLECULE
*****
 28 30 0 0 0
SMALL
GASTEIGER

@<TRIPOS>ATOM
      1 C          64.6061   89.9734   14.4104 C.ar    1  UNL1        0.1721
      2 C          64.5031   88.4942   14.1837 C.ar    1  UNL1        0.0368
      3 C          63.8557   87.6204   15.2169 C.ar    1  UNL1       -0.0084
      4 C          63.3113   88.2258   16.4767 C.ar    1  UNL1       -0.0203
      5 C          63.4143   89.7050   16.7033 C.ar    1  UNL1        0.0356
      6 C          64.0617   90.5788   15.6702 C.ar    1  UNL1        0.1723
      7 C          62.6640   87.3520   17.5098 C.3     1  UNL1        0.0435
      8 C          62.5610   85.8728   17.2832 C.3     1  UNL1        0.0770
      9 N          63.1054   85.2674   16.0233 N.3     1  UNL1       -0.2699
     10 C          63.0024   83.7882   15.7967 C.3     1  UNL1        0.0747
     11 C          63.5467   83.1828   14.5368 C.3     1  UNL1        0.0429
     12 C          64.1941   84.0566   13.5037 C.3     1  UNL1        0.1135
     13 O          64.7385   83.4512   12.2439 O.3     1  UNL1       -0.3844
     14 C          64.2971   85.5358   13.7304 C.3     1  UNL1        0.0497
     15 C          63.7527   86.1412   14.9902 C.3     1  UNL1        0.0823
     16 H          65.1200   84.1490   11.6884 H       1  UNL1        0.2103
     17 C          64.4105   91.5516   12.3559 C.3     1  UNL1        0.2526
     18 O          65.2535   90.8472   13.3773 O.3     1  UNL1       -0.4684
     19 O          64.1647   92.0580   15.8969 O.3     1  UNL1       -0.4635
     20 C          65.3840   92.6328   16.5547 C.3     1  UNL1        0.3082
     21 C          66.6470   92.8138   15.7659 C.3     1  UNL1        0.4380
     22 F          67.9099   92.9947   14.9770 F       1  UNL1       -0.1663
     23 F          67.4247   92.1376   16.8558 F       1  UNL1       -0.1663
     24 F          65.8693   93.4899   14.6760 F       1  UNL1       -0.1663
     25 C          63.4437   81.7036   14.3101 C.3     1  UNL1        0.0038
     26 C          62.3409   81.1506   13.4570 C.3     1  UNL1        0.0001
     27 C          62.6051   80.8039   12.0217 C.3     1  UNL1        0.0000
     28 C          60.9740   80.9442   14.0390 C.3     1  UNL1        0.0000
@<TRIPOS>BOND
     1    17    18    1
     2    18     1    1
     3     1     2   ar
     4     2     3   ar
     5     3     4   ar
     6     4     5   ar
     7     5     6   ar
     8     6    19    1
     9    19    20    1
    10    20    21    1
    11    21    22    1
    12    21    23    1
    13    21    24    1
    14     4     7    1
    15     7     8    1
    16     8     9    1
    17     9    10    1
    18    10    11    1
    19    11    25    1
    20    25    26    1
    21    26    27    1
    22    26    28    1
    23    11    12    1
    24    12    13    1
    25    12    14    1
    26    14    15    1
    27     6     1   ar
    28    15     9    1
    29    15     3    1
    30    13    16    1
@<TRIPOS>MOLECULE
*****
 28 30 0 0 0
SMALL
GASTEIGER

@<TRIPOS>ATOM
      1 C          65.1674   90.8162   14.2209 C.ar    1  UNL1        0.1721
      2 C          64.8135   89.3604   14.2940 C.ar    1  UNL1        0.0368
      3 C          63.9456   88.7455   13.2364 C.ar    1  UNL1       -0.0084
      4 C          63.4315   89.5864   12.1057 C.ar    1  UNL1       -0.0203
      5 C          63.7853   91.0422   12.0326 C.ar    1  UNL1        0.0356
      6 C          64.6533   91.6571   13.0902 C.ar    1  UNL1        0.1723
      7 C          62.5635   88.9715   11.0481 C.3     1  UNL1        0.0435
      8 C          62.2097   87.5157   11.1211 C.3     1  UNL1        0.0770
      9 N          62.7238   86.6747   12.2519 N.3     1  UNL1       -0.2699
     10 C          62.3700   85.2189   12.3250 C.3     1  UNL1        0.0747
     11 C          62.8841   84.3779   13.4557 C.3     1  UNL1        0.0429
     12 C          63.7521   84.9928   14.5133 C.3     1  UNL1        0.1135
     13 O          64.2662   84.1519   15.6440 O.3     1  UNL1       -0.3844
     14 C          64.1059   86.4487   14.4402 C.3     1  UNL1        0.0497
     15 C          63.5918   87.2896   13.3095 C.3     1  UNL1        0.0823
     16 H          64.8071   84.6996   16.2343 H       1  UNL1        0.2103
     17 C          67.5119   91.5663   15.0519 C.3     1  UNL1        0.2526
     18 O          66.0353   91.4311   15.2785 O.3     1  UNL1       -0.4684
     19 O          65.0071   93.1130   13.0171 O.3     1  UNL1       -0.4635
     20 C          66.2417   93.5490   12.2853 C.3     1  UNL1        0.3082
     21 C          66.7163   92.7779   11.0893 C.3     1  UNL1        0.4380
     22 F          67.1909   92.0068    9.8934 F       1  UNL1       -0.1663
     23 F          65.6792   93.4535   10.2421 F       1  UNL1       -0.1663
     24 F          67.7534   92.1022   11.9365 F       1  UNL1       -0.1663
     25 C          62.5303   82.9221   13.5288 C.3     1  UNL1        0.0038
     26 C          63.1813   81.9443   12.5961 C.3     1  UNL1        0.0001
     27 C          62.7292   80.5143   12.5735 C.3     1  UNL1        0.0000
     28 C          64.2845   82.3965   11.6859 C.3     1  UNL1        0.0000
@<TRIPOS>BOND
     1    17    18    1
     2    18     1    1
     3     1     2   ar
     4     2     3   ar
     5     3     4   ar
     6     4     5   ar
     7     5     6   ar
     8     6    19    1
     9    19    20    1
    10    20    21    1
    11    21    22    1
    12    21    23    1
    13    21    24    1
    14     4     7    1
    15     7     8    1
    16     8     9    1
    17     9    10    1
    18    10    11    1
    19    11    25    1
    20    25    26    1
    21    26    27    1
    22    26    28    1
    23    11    12    1
    24    12    13    1
    25    12    14    1
    26    14    15    1
    27     6     1   ar
    28    15     9    1
    29    15     3    1
    30    13    16    1
@<TRIPOS>MOLECULE
*****
 28 30 0 0 0
SMALL
GASTEIGER

@<TRIPOS>ATOM
      1 C          63.1739   85.4672   12.7172 C.ar    1  UNL1        0.1721
      2 C          62.3112   85.8821   11.5624 C.ar    1  UNL1        0.0368
      3 C          62.1466   87.3364   11.2337 C.ar    1  UNL1       -0.0084
      4 C          62.8447   88.3757   12.0597 C.ar    1  UNL1       -0.0203
      5 C          63.7074   87.9608   13.2145 C.ar    1  UNL1        0.0356
      6 C          63.8720   86.5065   13.5432 C.ar    1  UNL1        0.1723
      7 C          62.6802   89.8300   11.7310 C.3     1  UNL1        0.0435
      8 C          61.8175   90.2449   10.5762 C.3     1  UNL1        0.0770
      9 N          61.1193   89.2055    9.7501 N.3     1  UNL1       -0.2699
     10 C          60.2566   89.6204    8.5953 C.3     1  UNL1        0.0747
     11 C          59.5584   88.5811    7.7692 C.3     1  UNL1        0.0429
     12 C          59.7230   87.1268    8.0980 C.3     1  UNL1        0.1135
     13 O          59.0249   86.0875    7.2719 O.3     1  UNL1       -0.3844
     14 C          60.5857   86.7119    9.2528 C.3     1  UNL1        0.0497
     15 C          61.2839   87.7513   10.0788 C.3     1  UNL1        0.0823
     16 H          59.2360   85.2055    7.6161 H       1  UNL1        0.2103
     17 C          64.2583   83.1580   12.2257 C.3     1  UNL1        0.2526
     18 O          63.3384   84.0130   13.0460 O.3     1  UNL1       -0.4684
     19 O          64.7347   86.0916   14.6981 O.3     1  UNL1       -0.4635
     20 C          64.1411   85.3180   15.8378 C.3     1  UNL1        0.3082
     21 C          62.8941   85.8110   16.5102 C.3     1  UNL1        0.4380
     22 F          61.6472   86.3041   17.1825 F       1  UNL1       -0.1663
     23 F          63.5780   87.1077   16.8277 F       1  UNL1       -0.1663
     24 F          62.2103   84.5144   16.1926 F       1  UNL1       -0.1663
     25 C          58.6957   88.9960    6.6144 C.3     1  UNL1        0.0038
     26 C          59.0496   90.2139    5.8134 C.3     1  UNL1        0.0001
     27 C          57.9728   91.1603    5.3721 C.3     1  UNL1        0.0000
     28 C          60.4803   90.4853    5.4537 C.3     1  UNL1        0.0000
@<TRIPOS>BOND
     1    17    18    1
     2    18     1    1
     3     1     2   ar
     4     2     3   ar
     5     3     4   ar
     6     4     5   ar
     7     5     6   ar
     8     6    19    1
     9    19    20    1
    10    20    21    1
    11    21    22    1
    12    21    23    1
    13    21    24    1
    14     4     7    1
    15     7     8    1
    16     8     9    1
    17     9    10    1
    18    10    11    1
    19    11    25    1
    20    25    26    1
    21    26    27    1
    22    26    28    1
    23    11    12    1
    24    12    13    1
    25    12    14    1
    26    14    15    1
    27     6     1   ar
    28    15     9    1
    29    15     3    1
    30    13    16    1
@<TRIPOS>MOLECULE
*****
 28 30 0 0 0
SMALL
GASTEIGER

@<TRIPOS>ATOM
      1 C          63.8535   90.4841   12.5748 C.ar    1  UNL1        0.1721
      2 C          63.4911   89.0594   12.2764 C.ar    1  UNL1        0.0368
      3 C          63.7002   87.9987   13.3162 C.ar    1  UNL1       -0.0084
      4 C          64.2719   88.3626   14.6544 C.ar    1  UNL1       -0.0203
      5 C          64.6343   89.7872   14.9528 C.ar    1  UNL1        0.0356
      6 C          64.4251   90.8479   13.9130 C.ar    1  UNL1        0.1723
      7 C          64.4811   87.3019   15.6941 C.3     1  UNL1        0.0435
      8 C          64.1186   85.8773   15.3957 C.3     1  UNL1        0.0770
      9 N          63.5470   85.5133   14.0575 N.3     1  UNL1       -0.2699
     10 C          63.1846   84.0887   13.7590 C.3     1  UNL1        0.0747
     11 C          62.6129   83.7248   12.4208 C.3     1  UNL1        0.0429
     12 C          62.4037   84.7855   11.3810 C.3     1  UNL1        0.1135
     13 O          61.8321   84.4216   10.0428 O.3     1  UNL1       -0.3844
     14 C          62.7662   86.2102   11.6795 C.3     1  UNL1        0.0497
     15 C          63.3378   86.5741   13.0177 C.3     1  UNL1        0.0823
     16 H          61.7629   85.2180    9.4934 H       1  UNL1        0.2103
     17 C          63.0833   91.1790   10.1928 C.3     1  UNL1        0.2526
     18 O          63.6443   91.5448   11.5350 O.3     1  UNL1       -0.4684
     19 O          64.7875   92.2726   14.2115 O.3     1  UNL1       -0.4635
     20 C          66.2268   92.6950   14.2170 C.3     1  UNL1        0.3082
     21 C          67.0849   92.4190   15.4160 C.3     1  UNL1        0.4380
     22 F          67.9429   92.1431   16.6150 F       1  UNL1       -0.1663
     23 F          68.2321   92.0704   14.5148 F       1  UNL1       -0.1663
     24 F          65.9376   92.7676   16.3172 F       1  UNL1       -0.1663
     25 C          62.2505   82.3002   12.1224 C.3     1  UNL1        0.0038
     26 C          62.2555   81.2790   13.2211 C.3     1  UNL1        0.0001
     27 C          63.5236   80.5570   13.5682 C.3     1  UNL1        0.0000
     28 C          60.9924   80.9799   13.9728 C.3     1  UNL1        0.0000
@<TRIPOS>BOND
     1    17    18    1
     2    18     1    1
     3     1     2   ar
     4     2     3   ar
     5     3     4   ar
     6     4     5   ar
     7     5     6   ar
     8     6    19    1
     9    19    20    1
    10    20    21    1
    11    21    22    1
    12    21    23    1
    13    21    24    1
    14     4     7    1
    15     7     8    1
    16     8     9    1
    17     9    10    1
    18    10    11    1
    19    11    25    1
    20    25    26    1
    21    26    27    1
    22    26    28    1
    23    11    12    1
    24    12    13    1
    25    12    14    1
    26    14    15    1
    27     6     1   ar
    28    15     9    1
    29    15     3    1
    30    13    16    1
@<TRIPOS>MOLECULE
*****
 28 30 0 0 0
SMALL
GASTEIGER

@<TRIPOS>ATOM
      1 C          60.8252   89.2040   11.5105 C.ar    1  UNL1        0.1721
      2 C          61.7662   89.7895   12.5212 C.ar    1  UNL1        0.0368
      3 C          62.9339   90.6153   12.0686 C.ar    1  UNL1       -0.0084
      4 C          63.1605   90.8554   10.6055 C.ar    1  UNL1       -0.0203
      5 C          62.2194   90.2698    9.5948 C.ar    1  UNL1        0.0356
      6 C          61.0518   89.4441   10.0474 C.ar    1  UNL1        0.1723
      7 C          64.3281   91.6811   10.1529 C.3     1  UNL1        0.0435
      8 C          65.2691   92.2667   11.1636 C.3     1  UNL1        0.0770
      9 N          65.0426   92.0266   12.6269 N.3     1  UNL1       -0.2699
     10 C          65.9836   92.6122   13.6375 C.3     1  UNL1        0.0747
     11 C          65.7571   92.3721   15.1008 C.3     1  UNL1        0.0429
     12 C          64.5894   91.5463   15.5533 C.3     1  UNL1        0.1135
     13 O          64.3628   91.3062   17.0165 O.3     1  UNL1       -0.3844
     14 C          63.6484   90.9607   14.5426 C.3     1  UNL1        0.0497
     15 C          63.8749   91.2009   13.0794 C.3     1  UNL1        0.0823
     16 H          63.5717   90.7577   17.1354 H       1  UNL1        0.2103
     17 C          58.5408   89.0174   12.7340 C.3     1  UNL1        0.2526
     18 O          59.6575   88.3782   11.9631 O.3     1  UNL1       -0.4684
     19 O          60.1107   88.8585    9.0366 O.3     1  UNL1       -0.4635
     20 C          59.8177   87.3875    9.0486 C.3     1  UNL1        0.3082
     21 C          60.5055   86.4778    8.0742 C.3     1  UNL1        0.4380
     22 F          61.1934   85.5681    7.0998 F       1  UNL1       -0.1663
     23 F          59.1910   86.1963    7.4089 F       1  UNL1       -0.1663
     24 F          61.8201   86.7592    8.7394 F       1  UNL1       -0.1663
     25 C          66.6981   92.9577   16.1114 C.3     1  UNL1        0.0038
     26 C          68.1644   93.0462   15.8079 C.3     1  UNL1        0.0001
     27 C          68.9204   94.3035   16.1203 C.3     1  UNL1        0.0000
     28 C          68.8748   91.8774   15.1921 C.3     1  UNL1        0.0000
@<TRIPOS>BOND
     1    17    18    1
     2    18     1    1
     3     1     2   ar
     4     2     3   ar
     5     3     4   ar
     6     4     5   ar
     7     5     6   ar
     8     6    19    1
     9    19    20    1
    10    20    21    1
    11    21    22    1
    12    21    23    1
    13    21    24    1
    14     4     7    1
    15     7     8    1
    16     8     9    1
    17     9    10    1
    18    10    11    1
    19    11    25    1
    20    25    26    1
    21    26    27    1
    22    26    28    1
    23    11    12    1
    24    12    13    1
    25    12    14    1
    26    14    15    1
    27     6     1   ar
    28    15     9    1
    29    15     3    1
    30    13    16    1
@<TRIPOS>MOLECULE
*****
 28 30 0 0 0
SMALL
GASTEIGER

@<TRIPOS>ATOM
      1 C          62.9180   89.1408   11.4641 C.ar    1  UNL1        0.1721
      2 C          62.9235   87.6565   11.6801 C.ar    1  UNL1        0.0368
      3 C          63.4506   87.0873   12.9639 C.ar    1  UNL1       -0.0084
      4 C          63.9722   88.0025   14.0318 C.ar    1  UNL1       -0.0203
      5 C          63.9667   89.4868   13.8158 C.ar    1  UNL1        0.0356
      6 C          63.4396   90.0560   12.5320 C.ar    1  UNL1        0.1723
      7 C          64.4993   87.4333   15.3156 C.3     1  UNL1        0.0435
      8 C          64.5048   85.9490   15.5316 C.3     1  UNL1        0.0770
      9 N          63.9832   85.0337   14.4637 N.3     1  UNL1       -0.2699
     10 C          63.9887   83.5494   14.6796 C.3     1  UNL1        0.0747
     11 C          63.4671   82.6341   13.6117 C.3     1  UNL1        0.0429
     12 C          62.9400   83.2033   12.3279 C.3     1  UNL1        0.1135
     13 O          62.4184   82.2882   11.2600 O.3     1  UNL1       -0.3844
     14 C          62.9345   84.6877   12.1120 C.3     1  UNL1        0.0497
     15 C          63.4561   85.6029   13.1798 C.3     1  UNL1        0.0823
     16 H          62.1185   82.8138   10.5019 H       1  UNL1        0.2103
     17 C          60.9162   89.9179   10.0016 C.3     1  UNL1        0.2526
     18 O          62.3909   89.7100   10.1803 O.3     1  UNL1       -0.4684
     19 O          63.4341   91.5404   12.3161 O.3     1  UNL1       -0.4635
     20 C          64.7200   92.3108   12.3694 C.3     1  UNL1        0.3082
     21 C          65.4958   92.5633   11.1107 C.3     1  UNL1        0.4380
     22 F          66.2716   92.8157    9.8520 F       1  UNL1       -0.1663
     23 F          66.7332   92.8081   11.9224 F       1  UNL1       -0.1663
     24 F          64.2584   92.3184   10.2990 F       1  UNL1       -0.1663
     25 C          63.4726   81.1498   13.8276 C.3     1  UNL1        0.0038
     26 C          62.2270   80.3513   13.5807 C.3     1  UNL1        0.0001
     27 C          62.2915   79.0940   12.7652 C.3     1  UNL1        0.0000
     28 C          60.9170   80.8102   14.1491 C.3     1  UNL1        0.0000
@<TRIPOS>BOND
     1    17    18    1
     2    18     1    1
     3     1     2   ar
     4     2     3   ar
     5     3     4   ar
     6     4     5   ar
     7     5     6   ar
     8     6    19    1
     9    19    20    1
    10    20    21    1
    11    21    22    1
    12    21    23    1
    13    21    24    1
    14     4     7    1
    15     7     8    1
    16     8     9    1
    17     9    10    1
    18    10    11    1
    19    11    25    1
    20    25    26    1
    21    26    27    1
    22    26    28    1
    23    11    12    1
    24    12    13    1
    25    12    14    1
    26    14    15    1
    27     6     1   ar
    28    15     9    1
    29    15     3    1
    30    13    16    1
@<TRIPOS>MOLECULE
*****
 28 30 0 0 0
SMALL
GASTEIGER

@<TRIPOS>ATOM
      1 C          62.9471   83.7814   13.8904 C.ar    1  UNL1        0.1721
      2 C          62.3590   84.9018   13.0850 C.ar    1  UNL1        0.0368
      3 C          62.5643   84.9460   11.5998 C.ar    1  UNL1       -0.0084
      4 C          63.3577   83.8699   10.9199 C.ar    1  UNL1       -0.0203
      5 C          63.9459   82.7495   11.7253 C.ar    1  UNL1        0.0356
      6 C          63.7406   82.7052   13.2105 C.ar    1  UNL1        0.1723
      7 C          63.5630   83.9141    9.4347 C.3     1  UNL1        0.0435
      8 C          62.9749   85.0345    8.6293 C.3     1  UNL1        0.0770
      9 N          62.1814   86.1108    9.3092 N.3     1  UNL1       -0.2699
     10 C          61.5932   87.2312    8.5038 C.3     1  UNL1        0.0747
     11 C          60.7997   88.3075    9.1836 C.3     1  UNL1        0.0429
     12 C          60.5944   88.2632   10.6689 C.3     1  UNL1        0.1135
     13 O          59.8009   89.3394   11.3487 O.3     1  UNL1       -0.3844
     14 C          61.1826   87.1427   11.4742 C.3     1  UNL1        0.0497
     15 C          61.9761   86.0665   10.7944 C.3     1  UNL1        0.0823
     16 H          59.7647   89.1614   12.3015 H       1  UNL1        0.2103
     17 C          62.7076   85.0113   16.1663 C.3     1  UNL1        0.2526
     18 O          62.7418   83.7371   15.3756 O.3     1  UNL1       -0.4684
     19 O          64.3288   81.5847   14.0159 O.3     1  UNL1       -0.4635
     20 C          63.6020   80.2771   14.1244 C.3     1  UNL1        0.3082
     21 C          62.1574   80.1870   13.7306 C.3     1  UNL1        0.4380
     22 F          60.7128   80.0969   13.3367 F       1  UNL1       -0.1663
     23 F          61.7720   80.9337   14.9731 F       1  UNL1       -0.1663
     24 F          62.5427   79.4404   12.4880 F       1  UNL1       -0.1663
     25 C          60.2115   89.4279    8.3783 C.3     1  UNL1        0.0038
     26 C          59.3795   89.1249    7.1675 C.3     1  UNL1        0.0001
     27 C          59.3485   90.0886    6.0185 C.3     1  UNL1        0.0000
     28 C          58.5786   87.8582    7.1057 C.3     1  UNL1        0.0000
@<TRIPOS>BOND
     1    17    18    1
     2    18     1    1
     3     1     2   ar
     4     2     3   ar
     5     3     4   ar
     6     4     5   ar
     7     5     6   ar
     8     6    19    1
     9    19    20    1
    10    20    21    1
    11    21    22    1
    12    21    23    1
    13    21    24    1
    14     4     7    1
    15     7     8    1
    16     8     9    1
    17     9    10    1
    18    10    11    1
    19    11    25    1
    20    25    26    1
    21    26    27    1
    22    26    28    1
    23    11    12    1
    24    12    13    1
    25    12    14    1
    26    14    15    1
    27     6     1   ar
    28    15     9    1
    29    15     3    1
    30    13    16    1
@<TRIPOS>MOLECULE
*****
 28 30 0 0 0
SMALL
GASTEIGER

@<TRIPOS>ATOM
      1 C          63.8911   87.0549   14.3156 C.ar    1  UNL1        0.1721
      2 C          64.4409   88.4402   14.1473 C.ar    1  UNL1        0.0368
      3 C          64.0629   89.2565   12.9469 C.ar    1  UNL1       -0.0084
      4 C          63.1351   88.6873   11.9149 C.ar    1  UNL1       -0.0203
      5 C          62.5853   87.3019   12.0832 C.ar    1  UNL1        0.0356
      6 C          62.9633   86.4857   13.2836 C.ar    1  UNL1        0.1723
      7 C          62.7571   89.5035   10.7145 C.3     1  UNL1        0.0435
      8 C          63.3069   90.8889   10.5461 C.3     1  UNL1        0.0770
      9 N          64.2348   91.4581   11.5782 N.3     1  UNL1       -0.2699
     10 C          64.7846   92.8435   11.4099 C.3     1  UNL1        0.0747
     11 C          65.7125   93.4127   12.4420 C.3     1  UNL1        0.0429
     12 C          66.0905   92.5965   13.6423 C.3     1  UNL1        0.1135
     13 O          67.0183   93.1657   14.6744 O.3     1  UNL1       -0.3844
     14 C          65.5406   91.2111   13.8106 C.3     1  UNL1        0.0497
     15 C          64.6128   90.6419   12.7786 C.3     1  UNL1        0.0823
     16 H          67.1578   92.5134   15.3786 H       1  UNL1        0.2103
     17 C          63.2997   86.0780   16.6492 C.3     1  UNL1        0.2526
     18 O          64.2691   86.2387   15.5160 O.3     1  UNL1       -0.4684
     19 O          62.4134   85.1002   13.4519 O.3     1  UNL1       -0.4635
     20 C          63.1731   83.9219   12.9185 C.3     1  UNL1        0.3082
     21 C          63.4456   83.8085   11.4478 C.3     1  UNL1        0.4380
     22 F          63.7180   83.6951    9.9772 F       1  UNL1       -0.1663
     23 F          64.8711   83.4447   11.7399 F       1  UNL1       -0.1663
     24 F          62.0200   84.1723   11.1557 F       1  UNL1       -0.1663
     25 C          66.2623   94.7981   12.2736 C.3     1  UNL1        0.0038
     26 C          66.3156   95.4235   10.9112 C.3     1  UNL1        0.0001
     27 C          67.2405   94.8704    9.8678 C.3     1  UNL1        0.0000
     28 C          65.4441   96.6019   10.5922 C.3     1  UNL1        0.0000
@<TRIPOS>BOND
     1    17    18    1
     2    18     1    1
     3     1     2   ar
     4     2     3   ar
     5     3     4   ar
     6     4     5   ar
     7     5     6   ar
     8     6    19    1
     9    19    20    1
    10    20    21    1
    11    21    22    1
    12    21    23    1
    13    21    24    1
    14     4     7    1
    15     7     8    1
    16     8     9    1
    17     9    10    1
    18    10    11    1
    19    11    25    1
    20    25    26    1
    21    26    27    1
    22    26    28    1
    23    11    12    1
    24    12    13    1
    25    12    14    1
    26    14    15    1
    27     6     1   ar
    28    15     9    1
    29    15     3    1
    30    13    16    1
@<TRIPOS>MOLECULE
*****
 28 30 0 0 0
SMALL
GASTEIGER

@<TRIPOS>ATOM
      1 C          63.1252   84.4870   13.4280 C.ar    1  UNL1        0.1721
      2 C          63.4989   85.9362   13.5279 C.ar    1  UNL1        0.0368
      3 C          63.1070   86.8887   12.4374 C.ar    1  UNL1       -0.0084
      4 C          62.3415   86.3920   11.2470 C.ar    1  UNL1       -0.0203
      5 C          61.9678   84.9428   11.1471 C.ar    1  UNL1        0.0356
      6 C          62.3596   83.9903   12.2376 C.ar    1  UNL1        0.1723
      7 C          61.9496   87.3445   10.1565 C.3     1  UNL1        0.0435
      8 C          62.3233   88.7938   10.2565 C.3     1  UNL1        0.0770
      9 N          63.0889   89.2905   11.4470 N.3     1  UNL1       -0.2699
     10 C          63.4626   90.7398   11.5469 C.3     1  UNL1        0.0747
     11 C          64.2282   91.2365   12.7374 C.3     1  UNL1        0.0429
     12 C          64.6201   90.2840   13.8279 C.3     1  UNL1        0.1135
     13 O          65.3856   90.7807   15.0183 O.3     1  UNL1       -0.3844
     14 C          64.2463   88.8347   13.7279 C.3     1  UNL1        0.0497
     15 C          63.4808   88.3380   12.5374 C.3     1  UNL1        0.0823
     16 H          65.5570   90.0424   15.6236 H       1  UNL1        0.2103
     17 C          62.8836   83.6443   15.8737 C.3     1  UNL1        0.2526
     18 O          63.5170   83.5344   14.5185 O.3     1  UNL1       -0.4684
     19 O          61.9859   82.5410   12.1376 O.3     1  UNL1       -0.4635
     20 C          63.0536   81.5009   11.9697 C.3     1  UNL1        0.3082
     21 C          63.0411   80.5999   10.7705 C.3     1  UNL1        0.4380
     22 F          63.0286   79.6988    9.5714 F       1  UNL1       -0.1663
     23 F          63.4396   81.7539    9.8992 F       1  UNL1       -0.1663
     24 F          62.6427   79.4458   11.6419 F       1  UNL1       -0.1663
     25 C          64.6019   92.6858   12.8373 C.3     1  UNL1        0.0038
     26 C          66.0409   93.0978   12.7392 C.3     1  UNL1        0.0001
     27 C          66.8399   92.7473   11.5191 C.3     1  UNL1        0.0000
     28 C          66.6809   93.8602   13.8613 C.3     1  UNL1        0.0000
@<TRIPOS>BOND
     1    17    18    1
     2    18     1    1
     3     1     2   ar
     4     2     3   ar
     5     3     4   ar
     6     4     5   ar
     7     5     6   ar
     8     6    19    1
     9    19    20    1
    10    20    21    1
    11    21    22    1
    12    21    23    1
    13    21    24    1
    14     4     7    1
    15     7     8    1
    16     8     9    1
    17     9    10    1
    18    10    11    1
    19    11    25    1
    20    25    26    1
    21    26    27    1
    22    26    28    1
    23    11    12    1
    24    12    13    1
    25    12    14    1
    26    14    15    1
    27     6     1   ar
    28    15     9    1
    29    15     3    1
    30    13    16    1
