@<TRIPOS>MOLECULE
*****
 18 20 0 0 0
SMALL
GASTEIGER

@<TRIPOS>ATOM
      1 O          67.3468   92.2364   11.8032 O.3     1  UNL1       -0.4369
      2 C          67.0369   92.3663   13.2651 C.2     1  UNL1        0.2150
      3 N          67.9969   93.0734   14.1753 N.2     1  UNL1       -0.2130
      4 C          67.6871   93.2033   15.6371 C.2     1  UNL1        0.1030
      5 C          66.4172   92.6261   16.1889 C.2     1  UNL1        0.0362
      6 C          65.4573   91.9190   15.2787 C.2     1  UNL1        0.0732
      7 N          64.1372   91.2539   15.5337 N.2     1  UNL1       -0.2476
      8 C          63.6312   90.7129   14.2293 C.2     1  UNL1        0.0948
      9 C          64.6385   91.0437   13.1682 C.2     1  UNL1        0.0093
     10 C          65.7671   91.7891   13.8168 C.3     1  UNL1        0.1400
     11 F          66.3545   96.8552    8.1042 F       1  UNL1       -0.2041
     12 C          66.6026   95.7004    9.0290 C.ar    1  UNL1        0.1426
     13 C          65.8751   95.6183   10.3381 C.ar    1  UNL1        0.0329
     14 C          66.1231   94.4636   11.2629 C.ar    1  UNL1        0.0422
     15 C          67.0987   93.3911   10.8785 C.ar    1  UNL1        0.1742
     16 C          67.8263   93.4731    9.5693 C.ar    1  UNL1        0.1767
     17 F          68.8019   92.4006    9.1849 F       1  UNL1       -0.2009
     18 C          67.5782   94.6278    8.6446 C.ar    1  UNL1        0.0624
@<TRIPOS>BOND
     1    11    12    1
     2    12    13   ar
     3    13    14   ar
     4    14    15   ar
     5    15     1    1
     6     1     2    1
     7     2     3    2
     8     3     4    1
     9     4     5    2
    10     5     6    1
    11     6     7    2
    12     7     8    1
    13     8     9    2
    14     9    10    1
    15    15    16   ar
    16    16    17    1
    17    16    18   ar
    18    18    12   ar
    19    10     2    1
    20    10     6    1
@<TRIPOS>MOLECULE
*****
 18 20 0 0 0
SMALL
GASTEIGER

@<TRIPOS>ATOM
      1 O          63.3857   84.6070   11.0297 O.3     1  UNL1       -0.4369
      2 C          63.2030   84.2262   12.4690 C.2     1  UNL1        0.2150
      3 N          63.3118   85.2701   13.5406 N.2     1  UNL1       -0.2130
      4 C          63.1292   84.8894   14.9798 C.2     1  UNL1        0.1030
      5 C          62.8377   83.4646   15.3476 C.2     1  UNL1        0.0362
      6 C          62.7289   82.4207   14.2760 C.2     1  UNL1        0.0732
      7 N          62.4526   80.9475   14.3343 N.2     1  UNL1       -0.2476
      8 C          62.4646   80.4178   12.9310 C.2     1  UNL1        0.0948
      9 C          62.7482   81.5636   12.0054 C.2     1  UNL1        0.0093
     10 C          62.9115   82.8015   12.8367 C.3     1  UNL1        0.1400
     11 F          59.3205   88.0790    8.3057 F       1  UNL1       -0.2041
     12 C          60.3369   87.2110    8.9868 C.ar    1  UNL1        0.1426
     13 C          60.4420   87.2119   10.4830 C.ar    1  UNL1        0.0329
     14 C          61.4583   86.3439   11.1641 C.ar    1  UNL1        0.0422
     15 C          62.3694   85.4750   10.3487 C.ar    1  UNL1        0.1742
     16 C          62.2643   85.4740    8.8524 C.ar    1  UNL1        0.1767
     17 F          63.1755   84.6051    8.0370 F       1  UNL1       -0.2009
     18 C          61.2481   86.3420    8.1714 C.ar    1  UNL1        0.0624
@<TRIPOS>BOND
     1    11    12    1
     2    12    13   ar
     3    13    14   ar
     4    14    15   ar
     5    15     1    1
     6     1     2    1
     7     2     3    2
     8     3     4    1
     9     4     5    2
    10     5     6    1
    11     6     7    2
    12     7     8    1
    13     8     9    2
    14     9    10    1
    15    15    16   ar
    16    16    17    1
    17    16    18   ar
    18    18    12   ar
    19    10     2    1
    20    10     6    1
@<TRIPOS>MOLECULE
*****
 18 20 0 0 0
SMALL
GASTEIGER

@<TRIPOS>ATOM
      1 O          63.8062   84.0423   10.4494 O.3     1  UNL1       -0.4369
      2 C          63.5520   83.0009   11.4986 C.2     1  UNL1        0.2150
      3 N          63.0603   81.6406   11.1014 N.2     1  UNL1       -0.2130
      4 C          62.8061   80.5992   12.1505 C.2     1  UNL1        0.1030
      5 C          63.0436   80.9179   13.5969 C.2     1  UNL1        0.0362
      6 C          63.5353   82.2782   13.9941 C.2     1  UNL1        0.0732
      7 N          63.8572   82.8784   15.3306 N.2     1  UNL1       -0.2476
      8 C          64.3103   84.2908   15.1074 C.2     1  UNL1        0.0948
      9 C          64.2685   84.5635   13.6330 C.2     1  UNL1        0.0093
     10 C          63.7895   83.3197   12.9449 C.3     1  UNL1        0.1400
     11 F          59.5706   88.0887    9.1505 F       1  UNL1       -0.2041
     12 C          60.6295   87.0771    9.4753 C.ar    1  UNL1        0.1426
     13 C          60.9458   86.7553   10.9057 C.ar    1  UNL1        0.0329
     14 C          62.0048   85.7437   11.2305 C.ar    1  UNL1        0.0422
     15 C          62.7473   85.0539   10.1247 C.ar    1  UNL1        0.1742
     16 C          62.4310   85.3757    8.6941 C.ar    1  UNL1        0.1767
     17 F          63.1736   84.6859    7.5883 F       1  UNL1       -0.2009
     18 C          61.3721   86.3872    8.3694 C.ar    1  UNL1        0.0624
@<TRIPOS>BOND
     1    11    12    1
     2    12    13   ar
     3    13    14   ar
     4    14    15   ar
     5    15     1    1
     6     1     2    1
     7     2     3    2
     8     3     4    1
     9     4     5    2
    10     5     6    1
    11     6     7    2
    12     7     8    1
    13     8     9    2
    14     9    10    1
    15    15    16   ar
    16    16    17    1
    17    16    18   ar
    18    18    12   ar
    19    10     2    1
    20    10     6    1
@<TRIPOS>MOLECULE
*****
 18 20 0 0 0
SMALL
GASTEIGER

@<TRIPOS>ATOM
      1 O          61.4645   86.3002   11.6258 O.3     1  UNL1       -0.4369
      2 C          62.3997   85.1630   11.3387 C.2     1  UNL1        0.2150
      3 N          62.8409   84.8919    9.9309 N.2     1  UNL1       -0.2130
      4 C          63.7760   83.7549    9.6439 C.2     1  UNL1        0.1030
      5 C          64.2700   82.8887   10.7646 C.2     1  UNL1        0.0362
      6 C          63.8287   83.1598   12.1723 C.2     1  UNL1        0.0732
      7 N          64.1466   82.4816   13.4719 N.2     1  UNL1       -0.2476
      8 C          63.4079   83.1997   14.5622 C.2     1  UNL1        0.0948
      9 C          62.6335   84.3216   13.9365 C.2     1  UNL1        0.0093
     10 C          62.8936   84.2969   12.4594 C.3     1  UNL1        0.1400
     11 F          62.8962   91.8682    9.9090 F       1  UNL1       -0.2041
     12 C          62.5383   90.4762   10.3382 C.ar    1  UNL1        0.1426
     13 C          61.4298   89.7397    9.6463 C.ar    1  UNL1        0.0329
     14 C          61.0718   88.3477   10.0755 C.ar    1  UNL1        0.0422
     15 C          61.8225   87.6922   11.1966 C.ar    1  UNL1        0.1742
     16 C          62.9310   88.4286   11.8885 C.ar    1  UNL1        0.1767
     17 F          63.6817   87.7731   13.0096 F       1  UNL1       -0.2009
     18 C          63.2889   89.8206   11.4593 C.ar    1  UNL1        0.0624
@<TRIPOS>BOND
     1    11    12    1
     2    12    13   ar
     3    13    14   ar
     4    14    15   ar
     5    15     1    1
     6     1     2    1
     7     2     3    2
     8     3     4    1
     9     4     5    2
    10     5     6    1
    11     6     7    2
    12     7     8    1
    13     8     9    2
    14     9    10    1
    15    15    16   ar
    16    16    17    1
    17    16    18   ar
    18    18    12   ar
    19    10     2    1
    20    10     6    1
@<TRIPOS>MOLECULE
*****
 18 20 0 0 0
SMALL
GASTEIGER

@<TRIPOS>ATOM
      1 O          62.9226   85.8478   12.3948 O.3     1  UNL1       -0.4369
      2 C          62.1933   86.6179   11.3342 C.2     1  UNL1        0.2150
      3 N          61.3214   85.8967   10.3494 N.2     1  UNL1       -0.2130
      4 C          60.5920   86.6668    9.2889 C.2     1  UNL1        0.1030
      5 C          60.7345   88.1581    9.2129 C.2     1  UNL1        0.0362
      6 C          61.6063   88.8793   10.1976 C.2     1  UNL1        0.0732
      7 N          61.9379   90.3321   10.3689 N.2     1  UNL1       -0.2476
      8 C          62.8722   90.4599   11.5354 C.2     1  UNL1        0.0948
      9 C          63.1181   89.0861   12.0851 C.2     1  UNL1        0.0093
     10 C          62.3357   88.1092   11.2583 C.3     1  UNL1        0.1400
     11 F          62.7803   79.8495   12.3803 F       1  UNL1       -0.2041
     12 C          62.8159   81.3491   12.3839 C.ar    1  UNL1        0.1426
     13 C          63.3219   82.0902   11.1820 C.ar    1  UNL1        0.0329
     14 C          63.3575   83.5898   11.1856 C.ar    1  UNL1        0.0422
     15 C          62.8871   84.3482   12.3912 C.ar    1  UNL1        0.1742
     16 C          62.3810   83.6072   13.5932 C.ar    1  UNL1        0.1767
     17 F          61.9106   84.3656   14.7988 F       1  UNL1       -0.2009
     18 C          62.3454   82.1076   13.5896 C.ar    1  UNL1        0.0624
@<TRIPOS>BOND
     1    11    12    1
     2    12    13   ar
     3    13    14   ar
     4    14    15   ar
     5    15     1    1
     6     1     2    1
     7     2     3    2
     8     3     4    1
     9     4     5    2
    10     5     6    1
    11     6     7    2
    12     7     8    1
    13     8     9    2
    14     9    10    1
    15    15    16   ar
    16    16    17    1
    17    16    18   ar
    18    18    12   ar
    19    10     2    1
    20    10     6    1
@<TRIPOS>MOLECULE
*****
 18 20 0 0 0
SMALL
GASTEIGER

@<TRIPOS>ATOM
      1 O          63.3822   85.6383   11.9228 O.3     1  UNL1       -0.4369
      2 C          62.2815   86.1829   11.0614 C.2     1  UNL1        0.2150
      3 N          61.2603   87.1120   11.6477 N.2     1  UNL1       -0.2130
      4 C          60.1597   87.6566   10.7864 C.2     1  UNL1        0.1030
      5 C          60.0802   87.2720    9.3386 C.2     1  UNL1        0.0362
      6 C          61.1014   86.3429    8.7523 C.2     1  UNL1        0.0732
      7 N          61.2784   85.7898    7.3693 N.2     1  UNL1       -0.2476
      8 C          62.4885   84.9034    7.3760 C.2     1  UNL1        0.0948
      9 C          63.0593   84.9087    8.7631 C.2     1  UNL1        0.0093
     10 C          62.2021   85.7983    9.6137 C.3     1  UNL1        0.1400
     11 F          62.9433   80.1099   14.2129 F       1  UNL1       -0.2041
     12 C          63.0530   81.4921   13.6404 C.ar    1  UNL1        0.1426
     13 C          62.2824   82.6222   14.2559 C.ar    1  UNL1        0.0329
     14 C          62.3921   84.0043   13.6834 C.ar    1  UNL1        0.0422
     15 C          63.2725   84.2563   12.4953 C.ar    1  UNL1        0.1742
     16 C          64.0431   83.1261   11.8797 C.ar    1  UNL1        0.1767
     17 F          64.9234   83.3780   10.6916 F       1  UNL1       -0.2009
     18 C          63.9334   81.7440   12.4522 C.ar    1  UNL1        0.0624
@<TRIPOS>BOND
     1    11    12    1
     2    12    13   ar
     3    13    14   ar
     4    14    15   ar
     5    15     1    1
     6     1     2    1
     7     2     3    2
     8     3     4    1
     9     4     5    2
    10     5     6    1
    11     6     7    2
    12     7     8    1
    13     8     9    2
    14     9    10    1
    15    15    16   ar
    16    16    17    1
    17    16    18   ar
    18    18    12   ar
    19    10     2    1
    20    10     6    1
@<TRIPOS>MOLECULE
*****
 18 20 0 0 0
SMALL
GASTEIGER

@<TRIPOS>ATOM
      1 O          61.4748   87.6721   11.6341 O.3     1  UNL1       -0.4369
      2 C          62.1551   86.3367   11.5719 C.2     1  UNL1        0.2150
      3 N          62.4901   85.6059   12.8382 N.2     1  UNL1       -0.2130
      4 C          63.1703   84.2705   12.7761 C.2     1  UNL1        0.1030
      5 C          63.5157   83.6658   11.4474 C.2     1  UNL1        0.0362
      6 C          63.1807   84.3966   10.1811 C.2     1  UNL1        0.0732
      7 N          63.3966   84.0532    8.7370 N.2     1  UNL1       -0.2476
      8 C          62.8497   85.1763    7.9067 C.2     1  UNL1        0.0948
      9 C          62.2958   86.2139    8.8376 C.2     1  UNL1        0.0093
     10 C          62.5004   85.7320   10.2433 C.3     1  UNL1        0.1400
     11 F          64.6974   92.7074   11.1238 F       1  UNL1       -0.2041
     12 C          63.8917   91.4485   11.2514 C.ar    1  UNL1        0.1426
     13 C          64.0063   90.6069   12.4876 C.ar    1  UNL1        0.0329
     14 C          63.2006   89.3480   12.6152 C.ar    1  UNL1        0.0422
     15 C          62.2804   88.9309   11.5065 C.ar    1  UNL1        0.1742
     16 C          62.1658   89.7726   10.2702 C.ar    1  UNL1        0.1767
     17 F          61.2456   89.3555    9.1615 F       1  UNL1       -0.2009
     18 C          62.9715   91.0314   10.1426 C.ar    1  UNL1        0.0624
@<TRIPOS>BOND
     1    11    12    1
     2    12    13   ar
     3    13    14   ar
     4    14    15   ar
     5    15     1    1
     6     1     2    1
     7     2     3    2
     8     3     4    1
     9     4     5    2
    10     5     6    1
    11     6     7    2
    12     7     8    1
    13     8     9    2
    14     9    10    1
    15    15    16   ar
    16    16    17    1
    17    16    18   ar
    18    18    12   ar
    19    10     2    1
    20    10     6    1
@<TRIPOS>MOLECULE
*****
 18 20 0 0 0
SMALL
GASTEIGER

@<TRIPOS>ATOM
      1 O          61.4784   86.2436   11.6741 O.3     1  UNL1       -0.4369
      2 C          62.4056   85.0886   11.4368 C.2     1  UNL1        0.2150
      3 N          62.9371   84.8241   10.0593 N.2     1  UNL1       -0.2130
      4 C          63.8642   83.6691    9.8221 C.2     1  UNL1        0.1030
      5 C          64.2600   82.7785   10.9624 C.2     1  UNL1        0.0362
      6 C          63.7285   83.0430   12.3399 C.2     1  UNL1        0.0732
      7 N          63.9405   82.3423   13.6491 N.2     1  UNL1       -0.2476
      8 C          63.1444   83.0643   14.6955 C.2     1  UNL1        0.0948
      9 C          62.4403   84.2112   14.0330 C.2     1  UNL1        0.0093
     10 C          62.8014   84.1980   12.5771 C.3     1  UNL1        0.1400
     11 F          59.2986   89.3451    7.0233 F       1  UNL1       -0.2041
     12 C          59.8436   88.5697    8.1860 C.ar    1  UNL1        0.1426
     13 C          59.9788   87.0786    8.0958 C.ar    1  UNL1        0.0329
     14 C          60.5238   86.3031    9.2585 C.ar    1  UNL1        0.0422
     15 C          60.9335   87.0190   10.5114 C.ar    1  UNL1        0.1742
     16 C          60.7983   88.5102   10.6017 C.ar    1  UNL1        0.1767
     17 F          61.2080   89.2260   11.8545 F       1  UNL1       -0.2009
     18 C          60.2533   89.2855    9.4390 C.ar    1  UNL1        0.0624
@<TRIPOS>BOND
     1    11    12    1
     2    12    13   ar
     3    13    14   ar
     4    14    15   ar
     5    15     1    1
     6     1     2    1
     7     2     3    2
     8     3     4    1
     9     4     5    2
    10     5     6    1
    11     6     7    2
    12     7     8    1
    13     8     9    2
    14     9    10    1
    15    15    16   ar
    16    16    17    1
    17    16    18   ar
    18    18    12   ar
    19    10     2    1
    20    10     6    1
@<TRIPOS>MOLECULE
*****
 18 20 0 0 0
SMALL
GASTEIGER

@<TRIPOS>ATOM
      1 O          63.1351   85.4681   11.5202 O.3     1  UNL1       -0.4369
      2 C          63.0668   84.8482   12.8843 C.2     1  UNL1        0.2150
      3 N          63.2509   85.6998   14.1053 N.2     1  UNL1       -0.2130
      4 C          63.1826   85.0799   15.4694 C.2     1  UNL1        0.1030
      5 C          62.9301   83.6082   15.6127 C.2     1  UNL1        0.0362
      6 C          62.7459   82.7565   14.3917 C.2     1  UNL1        0.0732
      7 N          62.4851   81.2892   14.2216 N.2     1  UNL1       -0.2476
      8 C          62.3922   81.0024   12.7522 C.2     1  UNL1        0.0948
      9 C          62.5956   82.2924   12.0142 C.2     1  UNL1        0.0093
     10 C          62.8143   83.3765   13.0276 C.3     1  UNL1        0.1400
     11 F          59.6327   90.1501   10.1738 F       1  UNL1       -0.2041
     12 C          60.5083   88.9796   10.5104 C.ar    1  UNL1        0.1426
     13 C          60.1633   87.6129    9.9975 C.ar    1  UNL1        0.0329
     14 C          61.0389   86.4424   10.3341 C.ar    1  UNL1        0.0422
     15 C          62.2595   86.6386   11.1836 C.ar    1  UNL1        0.1742
     16 C          62.6046   88.0053   11.6965 C.ar    1  UNL1        0.1767
     17 F          63.8251   88.2016   12.5460 F       1  UNL1       -0.2009
     18 C          61.7290   89.1758   11.3599 C.ar    1  UNL1        0.0624
@<TRIPOS>BOND
     1    11    12    1
     2    12    13   ar
     3    13    14   ar
     4    14    15   ar
     5    15     1    1
     6     1     2    1
     7     2     3    2
     8     3     4    1
     9     4     5    2
    10     5     6    1
    11     6     7    2
    12     7     8    1
    13     8     9    2
    14     9    10    1
    15    15    16   ar
    16    16    17    1
    17    16    18   ar
    18    18    12   ar
    19    10     2    1
    20    10     6    1
